
 ===================================================
  XFOIL Version 6.99
  Copyright (C) 2000   Mark Drela, Harold Youngren

  This software comes with ABSOLUTELY NO WARRANTY,
    subject to the GNU General Public License.

  Caveat computor
 ===================================================

 File  xfoil.def  not found

   QUIT    Exit program

  .OPER    Direct operating point(s)
  .MDES    Complex mapping design routine
  .QDES    Surface speed design routine
  .GDES    Geometry design routine

   SAVE f  Write airfoil to labeled coordinate file
   PSAV f  Write airfoil to plain coordinate file
   ISAV f  Write airfoil to ISES coordinate file
   MSAV f  Write airfoil to MSES coordinate file
   REVE    Reverse written-airfoil node ordering
   DELI i  Change written-airfoil file delimiters

   LOAD f  Read buffer airfoil from coordinate file
   NACA i  Set NACA 4,5-digit airfoil and buffer airfoil
   INTE    Set buffer airfoil by interpolating two airfoils
   NORM    Buffer airfoil normalization toggle
   HALF    Halve the number of points in buffer airfoil
   XYCM rr Change CM reference location, currently  0.25000 0.00000

   BEND    Display structural properties of current airfoil

   PCOP    Set current-airfoil panel nodes directly from buffer airfoil points
   PANE    Set current-airfoil panel nodes ( 160 ) based on curvature
  .PPAR    Show/change paneling

  .PLOP    Plotting options

   WDEF f  Write  current-settings file
   RDEF f  Reread current-settings file
   NAME s  Specify new airfoil name
   NINC    Increment name version number

   Z       Zoom    | (available in all menus)
   U       Unzoom  | 

 XFOIL   c>   ...............................................

  G raphics-enable flag:        T
  S ize of plot object          10.00"
  A spect ratio of plot object   0.5500
  P age dimensions              11.00 x  8.50"
  M argins from page edges       0.00",  0.00"
  F ont size (relative)          0.0150
  W indow/screen size fraction   0.8000
  B lowup input method:        Cursor    
  O rientation of plot:        Landscape 
  C olor PostScript output?     T
  L ine colors for top,bottom    8  3

      Option, Value   (or <Return>)    c>   ...............................................

  G raphics-enable flag:        F
  S ize of plot object          10.00"
  A spect ratio of plot object   0.5500
  P age dimensions              11.00 x  8.50"
  M argins from page edges       0.00",  0.00"
  F ont size (relative)          0.0150
  W indow/screen size fraction   0.8000
  B lowup input method:        Cursor    
  O rientation of plot:        Landscape 
  C olor PostScript output?     T
  L ine colors for top,bottom    8  3

      Option, Value   (or <Return>)    c>  
 XFOIL   c>  
Enter filename   s>  
 Plain airfoil file

Enter airfoil name   s>  
 Number of input coordinate points: 200
 Clockwise ordering
 Max thickness =     0.204393  at x =   0.314
 Max camber    =     0.046653  at x =   0.782

  LE  x,y  =   0.00026   0.00046  |   Chord =   0.99211
  TE  x,y  =   0.99178  -0.03365  |

 Current airfoil nodes set from buffer airfoil nodes ( 200 )

 XFOIL   c>  
 You are working with the buffer airfoil

.GDES   c>   Max thickness =     0.206141  at x =   0.316
 Max camber    =     0.047052  at x =   0.789

.GDES   c>  
 Current airfoil nodes set from buffer airfoil nodes ( 200 )

.GDES   c>  
 XFOIL   c>  
    Present paneling parameters...
  N  i   Number of panel nodes       160
  P  r   Panel bunching parameter    1.000
  T  r   TE/LE panel density ratio   0.150
  R  r   Refined area/LE  panel density ratio   0.200
  XT rr  Top    side refined area x/c limits    1.000 1.000
  XB rr  Bottom side refined area x/c limits    1.000 1.000
  Z oom
  U nzoom
  H ardcopy

Change what ? (<cr> if nothing else)   c>  
Enter number of panel nodes   i>  
Change what ? (<cr> if nothing else)   c>  
Enter panel bunching parameter (0 to ~1)   r>  
Change what ? (<cr> if nothing else)   c>  
Enter TE/LE panel density ratio   r>  
Change what ? (<cr> if nothing else)   c>  
Enter refined-area panel density ratio   r>  
Change what ? (<cr> if nothing else)   c>  
Enter left   top   side refinement limit   r>  
Enter right  top   side refinement limit   r>  
Change what ? (<cr> if nothing else)   c>  
Enter left  bottom side refinement limit   r>  
Enter right bottom side refinement limit   r>  
Change what ? (<cr> if nothing else)   c>  
 Blunt trailing edge.  Gap =  0.00096

 Maximum panel corner angle =  6.483   at  i,x,y  = 157   0.0000  -0.0006

    Present paneling parameters...
  N  i   Number of panel nodes       310
  P  r   Panel bunching parameter    1.600
  T  r   TE/LE panel density ratio   0.120
  R  r   Refined area/LE  panel density ratio   0.080
  XT rr  Top    side refined area x/c limits    0.550 0.900
  XB rr  Bottom side refined area x/c limits    0.550 0.900
  Z oom
  U nzoom
  H ardcopy

Change what ? (<cr> if nothing else)   c>  
 XFOIL   c>  
.OPERi   c>  
Enter Reynolds number   r>  
 M  =    0.0000
 Re =  0.6846E+07

.OPERv   c>  
 Currently...

 M  =    0.0000

Enter Mach number   r>  
 Sonic Cp =    -12.69      Sonic Q/Qinf =     4.065


.OPERv   c>   Current iteration limit:          20

Enter new iteration limit   i>  
.OPERv   c>  
 Polar  1 newly created for accumulation
 Airfoil archived with polar:                                                 

Enter  polar save filename  OR  <return> for no file   s>  
 Polar save file will NOT be written

Enter  polar dump filename  OR  <return> for no file   s>  
 Polar dump file will NOT be written

 Polar accumulation enabled

.OPERva   c>   Calculating unit vorticity distributions ...
 Calculating wake trajectory ...
 Calculating source influence matrix ...

 Solving BL system ...

 Initializing BL ...
    side            1  ...
 MRCHUE: Inverse mode at  95     Hk =   3.800
 MRCHUE: Inverse mode at  96     Hk =   4.917
 MRCHUE: Inverse mode at  97     Hk =   6.021
 MRCHUE: Inverse mode at  98     Hk =   7.119
 MRCHUE: Inverse mode at  99     Hk =   8.217
 MRCHUE: Inverse mode at 100     Hk =   9.316
 MRCHUE: Inverse mode at 101     Hk =   5.369
 MRCHUE: Inverse mode at 102     Hk =   2.500
    side            2  ...
 MRCHUE: Inverse mode at  42     Hk =   4.934
 MRCHUE: Inverse mode at  43     Hk =   7.134
 MRCHUE: Inverse mode at  44     Hk =   9.264
 MRCHUE: Inverse mode at  45     Hk =   3.668
 MRCHUE: Inverse mode at  46     Hk =   2.500
 MRCHUE: Inverse mode at 117     Hk =   2.500
 MRCHUE: Inverse mode at 118     Hk =   2.500
 MRCHUE: Inverse mode at 119     Hk =   2.500
 MRCHUE: Inverse mode at 120     Hk =   2.500
 MRCHUE: Inverse mode at 121     Hk =   2.500
 MRCHUE: Inverse mode at 122     Hk =   2.500
 MRCHUE: Inverse mode at 123     Hk =   2.500
 MRCHUE: Inverse mode at 124     Hk =   2.500
 MRCHUE: Inverse mode at 125     Hk =   2.500
 MRCHUE: Inverse mode at 126     Hk =   2.500
 MRCHUE: Inverse mode at 127     Hk =   2.500
 MRCHUE: Inverse mode at 128     Hk =   2.500
 MRCHUE: Inverse mode at 129     Hk =   2.500
 MRCHUE: Inverse mode at 130     Hk =   2.500
 MRCHUE: Inverse mode at 131     Hk =   2.500
 MRCHUE: Inverse mode at 132     Hk =   2.500
 MRCHUE: Inverse mode at 133     Hk =   2.500
 MRCHUE: Inverse mode at 134     Hk =   2.500
 MRCHUE: Inverse mode at 135     Hk =   2.500
 MRCHUE: Inverse mode at 136     Hk =   2.500
 MRCHUE: Inverse mode at 137     Hk =   2.500
 MRCHUE: Convergence failed at 138  side 2    Res =  0.4198E+01
 MRCHUE: Inverse mode at 139     Hk =   2.500
 MRCHUE: Inverse mode at 140     Hk =   2.500
 MRCHUE: Inverse mode at 141     Hk =   2.500
 MRCHUE: Inverse mode at 142     Hk =   2.500
 MRCHUE: Inverse mode at 143     Hk =   2.500
 MRCHUE: Inverse mode at 144     Hk =   2.500
 MRCHUE: Inverse mode at 145     Hk =   2.500
 MRCHUE: Inverse mode at 146     Hk =   2.500
 MRCHUE: Inverse mode at 147     Hk =   2.500
 MRCHUE: Inverse mode at 148     Hk =   2.500
 MRCHUE: Inverse mode at 149     Hk =   2.500
 MRCHUE: Inverse mode at 150     Hk =   2.500
 MRCHUE: Inverse mode at 151     Hk =   2.500
 MRCHUE: Convergence failed at 152  side 2    Res =  0.4235E+01
 MRCHUE: Inverse mode at 153     Hk =   2.500
 MRCHUE: Inverse mode at 154     Hk =   2.500
 MRCHUE: Inverse mode at 155     Hk =   2.500
 MRCHUE: Inverse mode at 156     Hk =   2.500
 MRCHUE: Inverse mode at 157     Hk =   2.500
 MRCHUE: Inverse mode at 158     Hk =   2.500
 MRCHUE: Inverse mode at 159     Hk =   2.500
 MRCHUE: Inverse mode at 160     Hk =   2.500
 MRCHUE: Convergence failed at 161  side 2    Res =  0.4784E+01
 MRCHUE: Inverse mode at 162     Hk =   2.500
 MRCHUE: Inverse mode at 163     Hk =   2.500
 MRCHUE: Inverse mode at 164     Hk =   2.500
 MRCHUE: Convergence failed at 165  side 2    Res =  0.4386E+01
 MRCHUE: Inverse mode at 166     Hk =   2.500
 MRCHUE: Inverse mode at 167     Hk =   2.500
 MRCHUE: Inverse mode at 168     Hk =   2.500
 MRCHUE: Inverse mode at 169     Hk =   2.500
 MRCHUE: Inverse mode at 170     Hk =   2.500
 MRCHUE: Inverse mode at 171     Hk =   2.500
 MRCHUE: Inverse mode at 172     Hk =   2.500

 MRCHDU: Convergence failed at 138  side 2    Res =  0.1499E+01
 MRCHDU: Convergence failed at 139  side 2    Res =  0.1509E+01
 MRCHDU: Convergence failed at 140  side 2    Res =  0.1539E+01
 MRCHDU: Convergence failed at 141  side 2    Res =  0.1569E+01
 MRCHDU: Convergence failed at 142  side 2    Res =  0.1601E+01
 MRCHDU: Convergence failed at 143  side 2    Res =  0.1634E+01
 MRCHDU: Convergence failed at 144  side 2    Res =  0.1668E+01
 MRCHDU: Convergence failed at 145  side 2    Res =  0.1703E+01
 MRCHDU: Convergence failed at 146  side 2    Res =  0.1739E+01
 MRCHDU: Convergence failed at 147  side 2    Res =  0.1777E+01
 MRCHDU: Convergence failed at 148  side 2    Res =  0.1815E+01
 MRCHDU: Convergence failed at 149  side 2    Res =  0.1855E+01
 MRCHDU: Convergence failed at 150  side 2    Res =  0.1896E+01
 MRCHDU: Convergence failed at 151  side 2    Res =  0.1937E+01
 MRCHDU: Convergence failed at 152  side 2    Res =  0.2963E+01
 MRCHDU: Convergence failed at 153  side 2    Res =  0.2971E+01
 MRCHDU: Convergence failed at 154  side 2    Res =  0.2953E+01
 MRCHDU: Convergence failed at 155  side 2    Res =  0.2889E+01
 MRCHDU: Convergence failed at 156  side 2    Res =  0.2999E+01
 MRCHDU: Convergence failed at 157  side 2    Res =  0.3049E+01
 MRCHDU: Convergence failed at 158  side 2    Res =  0.3159E+01
 MRCHDU: Convergence failed at 159  side 2    Res =  0.3213E+01
 MRCHDU: Convergence failed at 160  side 2    Res =  0.3267E+01
 MRCHDU: Convergence failed at 161  side 2    Res =  0.5488E+01
 MRCHDU: Convergence failed at 162  side 2    Res =  0.5504E+01
 MRCHDU: Convergence failed at 163  side 2    Res =  0.5599E+01
 MRCHDU: Convergence failed at 164  side 2    Res =  0.5696E+01
 MRCHDU: Convergence failed at 165  side 2    Res =  0.5535E+03
 MRCHDU: Convergence failed at 166  side 2    Res =  0.1092E+04
 MRCHDU: Convergence failed at 167  side 2    Res =  0.1021E+04
 MRCHDU: Convergence failed at 168  side 2    Res =  0.3505E+03
 MRCHDU: Convergence failed at 169  side 2    Res =  0.2125E+03
 MRCHDU: Convergence failed at 170  side 2    Res =  0.1530E+03
 MRCHDU: Convergence failed at 171  side 2    Res =  0.1198E+03
 MRCHDU: Convergence failed at 172  side 2    Res =  0.9868E+02
 MRCHDU: Convergence failed at 173  side 2    Res =  0.1067E+02
 MRCHDU: Convergence failed at 174  side 2    Res =  0.1099E+02
 MRCHDU: Convergence failed at 175  side 2    Res =  0.1088E+02
 MRCHDU: Convergence failed at 176  side 2    Res =  0.1204E+02
 MRCHDU: Convergence failed at 177  side 2    Res =  0.1394E+02
 MRCHDU: Convergence failed at 178  side 2    Res =  0.1609E+02
 MRCHDU: Convergence failed at 179  side 2    Res =  0.2750E+02
 MRCHDU: Convergence failed at 180  side 2    Res =  0.3805E+02
 MRCHDU: Convergence failed at 181  side 2    Res =  0.1889E+03
 MRCHDU: Convergence failed at 182  side 2    Res =  0.5609E+02
 MRCHDU: Convergence failed at 183  side 2    Res =  0.2278E+02
 MRCHDU: Convergence failed at 184  side 2    Res =  0.1590E+02
 MRCHDU: Convergence failed at 185  side 2    Res =  0.1302E+02
 MRCHDU: Convergence failed at 186  side 2    Res =  0.1010E+02
 MRCHDU: Convergence failed at 187  side 2    Res =  0.9125E+01
 MRCHDU: Convergence failed at 188  side 2    Res =  0.6600E+01
 MRCHDU: Convergence failed at 189  side 2    Res =  0.5920E+01
 MRCHDU: Convergence failed at 190  side 2    Res =  0.5460E+01
 MRCHDU: Convergence failed at 191  side 2    Res =  0.6378E+01
 MRCHDU: Convergence failed at 192  side 2    Res =  0.4549E+02
 MRCHDU: Convergence failed at 193  side 2    Res =  0.8789E+02
 Side 1  free  transition at x/c =  0.8560  101
 Side 2  free  transition at x/c =  0.0011   45

   1   rms: 0.5950E+00   max: 0.2008E+01   D at  165  2   RLX: 0.747
       a =-20.000      CL = -1.6854
      Cm = -0.0752     CD =  0.01782   =>   CDf =  0.00423    CDp =  0.01359

 MRCHDU: Convergence failed at 146  side 2    Res =  0.2119E+00
 MRCHDU: Convergence failed at 151  side 2    Res =  0.9100E+00
 MRCHDU: Convergence failed at 152  side 2    Res =  0.2668E+02
 MRCHDU: Convergence failed at 153  side 2    Res =  0.7164E+01
 MRCHDU: Convergence failed at 154  side 2    Res =  0.4613E+01
 MRCHDU: Convergence failed at 155  side 2    Res =  0.4134E+01
 MRCHDU: Convergence failed at 156  side 2    Res =  0.3798E+01
 MRCHDU: Convergence failed at 157  side 2    Res =  0.3591E+01
 MRCHDU: Convergence failed at 158  side 2    Res =  0.3474E+01
 MRCHDU: Convergence failed at 159  side 2    Res =  0.3384E+01
 MRCHDU: Convergence failed at 160  side 2    Res =  0.3326E+01
 MRCHDU: Convergence failed at 161  side 2    Res =  0.3291E+01
 MRCHDU: Convergence failed at 162  side 2    Res =  0.3270E+01
 MRCHDU: Convergence failed at 163  side 2    Res =  0.3257E+01
 MRCHDU: Convergence failed at 164  side 2    Res =  0.3252E+01
 MRCHDU: Convergence failed at 165  side 2    Res =  0.3222E+01
 MRCHDU: Convergence failed at 166  side 2    Res =  0.3165E+01
 MRCHDU: Convergence failed at 167  side 2    Res =  0.3083E+01
 MRCHDU: Convergence failed at 168  side 2    Res =  0.2990E+01
 MRCHDU: Convergence failed at 169  side 2    Res =  0.2830E+01
 MRCHDU: Convergence failed at 170  side 2    Res =  0.2761E+01
 MRCHDU: Convergence failed at 171  side 2    Res =  0.2701E+01
 MRCHDU: Convergence failed at 172  side 2    Res =  0.2644E+01
 MRCHDU: Convergence failed at 173  side 2    Res =  0.2591E+01
 MRCHDU: Convergence failed at 174  side 2    Res =  0.2931E+01
 MRCHDU: Convergence failed at 175  side 2    Res =  0.3164E+01
 MRCHDU: Convergence failed at 176  side 2    Res =  0.3476E+01
 MRCHDU: Convergence failed at 177  side 2    Res =  0.3807E+01
 MRCHDU: Convergence failed at 178  side 2    Res =  0.4132E+01
 MRCHDU: Convergence failed at 179  side 2    Res =  0.4432E+01
 MRCHDU: Convergence failed at 180  side 2    Res =  0.4636E+01
 MRCHDU: Convergence failed at 181  side 2    Res =  0.5002E+01
 MRCHDU: Convergence failed at 182  side 2    Res =  0.5622E+01
 MRCHDU: Convergence failed at 183  side 2    Res =  0.6562E+01
 MRCHDU: Convergence failed at 184  side 2    Res =  0.8064E+01
 MRCHDU: Convergence failed at 185  side 2    Res =  0.1071E+02
 MRCHDU: Convergence failed at 186  side 2    Res =  0.1718E+02
 MRCHDU: Convergence failed at 187  side 2    Res =  0.4619E+02
 MRCHDU: Convergence failed at 188  side 2    Res =  0.7861E+02
 MRCHDU: Convergence failed at 189  side 2    Res =  0.2138E+02
 MRCHDU: Convergence failed at 190  side 2    Res =  0.1194E+02
 MRCHDU: Convergence failed at 191  side 2    Res =  0.8244E+01
 MRCHDU: Convergence failed at 192  side 2    Res =  0.6502E+01
 MRCHDU: Convergence failed at 193  side 2    Res =  0.5479E+01
 Side 1  free  transition at x/c =  0.8582  101
 Side 2  free  transition at x/c =  0.0012   45

   2   rms: 0.1242E+01   max: 0.4707E+01   D at  147  2   RLX: 0.319
       a =-20.000      CL = -1.7752
      Cm = -0.0064     CD =  0.02253   =>   CDf =  0.00402    CDp =  0.01851

 Side 1  free  transition at x/c =  0.8586  101
 Side 2  free  transition at x/c =  0.0012   45

   3   rms: 0.9644E+00   max: 0.3255E+01   D at  201  2   RLX: 0.413
       a =-20.000      CL = -1.5945
      Cm = -0.0014     CD =  0.04454   =>   CDf =  0.00382    CDp =  0.04072

 MRCHDU: Convergence failed at 201  side 2    Res =  0.1886E+01
 MRCHDU: Convergence failed at 202  side 2     MRCHDU: Convergen MRCHDU: Convergence failed at 203  side 2    Res =  0.3165E+01
 MRCHDU: Convergence failed at 204  side 2    Res =  0.1966E+01
 MRCHDU: Convergence failed at 205  side 2    Res =  0.1133E+01
 MRCHDU: Convergence failed at 206  side 2    Res =  0.9353E+00
 Side 1  free  transition at x/c =  0.8595  101
 Side 2  free  transition at x/c =  0.0012   45

   4   rms: 0.3958E+00   max: 0.1982E+01   D at  197  2   RLX: 0.757
       a =-20.000      CL = -1.2382
      Cm = -0.0611     CD =  0.06806   =>   CDf =  0.00397    CDp =  0.06409

 Side 1  free  transition at x/c =  0.8594  103
 Side 2  free  transition at x/c =  0.0013   44

   5   rms: 0.1781E+00   max: 0.8963E+00   D at  200  2
       a =-20.000      CL = -1.0537
      Cm = -0.0861     CD =  0.08263   =>   CDf =  0.00365    CDp =  0.07899

 Side 1  free  transition at x/c =  0.8589  104
 Side 2  free  transition at x/c =  0.0016   43

   6   rms: 0.4007E-01   max: -.4277E+00   C at   43  2
       a =-20.000      CL = -1.0588
      Cm = -0.0861     CD =  0.07252   =>   CDf =  0.00339    CDp =  0.06914

 Side 1  free  transition at x/c =  0.8589  104
 Side 2  free  transition at x/c =  0.0016   43

   7   rms: 0.9017E-02   max: 0.1080E+00   C at   43  2
       a =-20.000      CL = -1.0522
      Cm = -0.0867     CD =  0.07018   =>   CDf =  0.00340    CDp =  0.06678

 Side 1  free  transition at x/c =  0.8588  104
 Side 2  free  transition at x/c =  0.0016   43

   8   rms: 0.1598E-02   max: 0.2871E-01   D at  206  2
       a =-20.000      CL = -1.0514
      Cm = -0.0868     CD =  0.06978   =>   CDf =  0.00340    CDp =  0.06638

 Side 1  free  transition at x/c =  0.8588  104
 Side 2  free  transition at x/c =  0.0016   43

   9   rms: 0.2569E-03   max: 0.2207E-02   D at  207  2
       a =-20.000      CL = -1.0512
      Cm = -0.0869     CD =  0.06968   =>   CDf =  0.00340    CDp =  0.06628

 Side 1  free  transition at x/c =  0.8588  104
 Side 2  free  transition at x/c =  0.0016   43

  10   rms: 0.2094E-04   max: 0.1601E-03   D at  207  2
       a =-20.000      CL = -1.0511
      Cm = -0.0869     CD =  0.06967   =>   CDf =  0.00340    CDp =  0.06627
      9.000    6.3437   0.069665   0.000421   0.000510   0.000089    0.8588     #

 Point added to stored polar  1
 Save file unspecified or not available
 Dump file unspecified or not available

.OPERva   c>   Calculating wake trajectory ...
 Calculating source influence matrix ...

 Solving BL system ...

 Side 1  free  transition at x/c =  0.8588  104
 Side 2  free  transition at x/c =  0.0016   43

   1   rms: 0.6285E-01   max: -.3178E+00   C at   43  2
       a =-19.500      CL = -1.0314
      Cm = -0.0906     CD =  0.05927   =>   CDf =  0.00339    CDp =  0.05587

 Side 1  free  transition at x/c =  0.8578  104
 Side 2  free  transition at x/c =  0.0016   43

   2   rms: 0.2724E-01   max: -.3866E+00   C at   43  2
       a =-19.500      CL = -1.0388
      Cm = -0.0902     CD =  0.06146   =>   CDf =  0.00347    CDp =  0.05798

 Side 1  free  transition at x/c =  0.8577  104
 Side 2  free  transition at x/c =  0.0016   43

   3   rms: 0.1667E-01   max: -.3976E+00   C at   43  2
       a =-19.500      CL = -1.0444
      Cm = -0.0895     CD =  0.06340   =>   CDf =  0.00348    CDp =  0.05992

 Side 1  free  transition at x/c =  0.8577  104
 Side 2  free  transition at x/c =  0.0016   43

   4   rms: 0.1476E-01   max: -.3868E+00   C at   43  2
       a =-19.500      CL = -1.0453
      Cm = -0.0893     CD =  0.06382   =>   CDf =  0.00348    CDp =  0.06034

 Side 1  free  transition at x/c =  0.8577  104
 Side 2  free  transition at x/c =  0.0016   43

   5   rms: 0.1470E-01   max: -.3859E+00   C at   43  2
       a =-19.500      CL = -1.0454
      Cm = -0.0893     CD =  0.06386   =>   CDf =  0.00348    CDp =  0.06038

 Side 1  free  transition at x/c =  0.8577  104
 Side 2  free  transition at x/c =  0.0016   43

   6   rms: 0.1469E-01   max: -.3857E+00   C at   43  2
       a =-19.500      CL = -1.0454
      Cm = -0.0893     CD =  0.06387   =>   CDf =  0.00348    CDp =  0.06039

 Side 1  free  transition at x/c =  0.8577  104
 Side 2  free  transition at x/c =  0.0016   43

   7   rms: 0.1469E-01   max: -.3857E+00   C at   43  2
       a =-19.500      CL = -1.0454
      Cm = -0.0893     CD =  0.06387   =>   CDf =  0.00348    CDp =  0.06039

 Side 1  free  transition at x/c =  0.8577  104
 Side 2  free  transition at x/c =  0.0016   43

   8   rms: 0.1469E-01   max: -.3857E+00   C at   43  2
       a =-19.500      CL = -1.0454
      Cm = -0.0893     CD =  0.06387   =>   CDf =  0.00348    CDp =  0.06039

 Side 1  free  transition at x/c =  0.8577  104
 Side 2  free  transition at x/c =  0.0016   43

   9   rms: 0.1469E-01   max: -.3857E+00   C at   43  2
       a =-19.500      CL = -1.0454
      Cm = -0.0893     CD =  0.06387   =>   CDf =  0.00348    CDp =  0.06039

 Side 1  free  transition at x/c =  0.8577  104
 Side 2  free  transition at x/c =  0.0016   43

  10   rms: 0.1469E-01   max: -.3857E+00   C at   43  2
       a =-19.500      CL = -1.0454
      Cm = -0.0893     CD =  0.06387   =>   CDf =  0.00348    CDp =  0.06039
 VISCAL:  Convergence failed
      9.000    6.1564   0.063869   0.000424   0.000506   0.000082    0.8577     #

.OPERva   c>   Calculating wake trajectory ...
 Calculating source influence matrix ...

 Solving BL system ...

 Side 1  free  transition at x/c =  0.8577  104
 Side 2  free  transition at x/c =  0.0016   43

   1   rms: 0.6157E-01   max: -.3801E+00   C at   43  2
       a =-19.000      CL = -1.0196
      Cm = -0.0923     CD =  0.05564   =>   CDf =  0.00347    CDp =  0.05217

 Side 1  free  transition at x/c =  0.8570  104
 Side 2  free  transition at x/c =  0.0018   44

   2   rms: 0.3173E-01   max: -.3871E+00   C at   44  2
       a =-19.000      CL = -1.0321
      Cm = -0.0923     CD =  0.05636   =>   CDf =  0.00354    CDp =  0.05282

 Side 1  free  transition at x/c =  0.8569  104
 Side 2  free  transition at x/c =  0.0027   45

   3   rms: 0.1576E-01   max: -.1672E+00   D at   45  2
       a =-19.000      CL = -1.0425
      Cm = -0.0920     CD =  0.05723   =>   CDf =  0.00356    CDp =  0.05367

 Side 1  free  transition at x/c =  0.8570  104
 Side 2  free  transition at x/c =  0.0020   44

   4   rms: 0.6604E-02   max: -.1763E+00   C at   44  2
       a =-19.000      CL = -1.0399
      Cm = -0.0915     CD =  0.05871   =>   CDf =  0.00357    CDp =  0.05514

 Side 1  free  transition at x/c =  0.8570  104
 Side 2  free  transition at x/c =  0.0020   44

   5   rms: 0.6086E-03   max: 0.2513E-02   D at  208  2
       a =-19.000      CL = -1.0399
      Cm = -0.0915     CD =  0.05870   =>   CDf =  0.00357    CDp =  0.05513

 Side 1  free  transition at x/c =  0.8570  104
 Side 2  free  transition at x/c =  0.0020   44

   6   rms: 0.1957E-03   max: -.3589E-02   C at   44  2
       a =-19.000      CL = -1.0398
      Cm = -0.0915     CD =  0.05864   =>   CDf =  0.00357    CDp =  0.05507

 Side 1  free  transition at x/c =  0.8570  104
 Side 2  free  transition at x/c =  0.0020   44

   7   rms: 0.5924E-05   max: -.1210E-03   C at   44  2
       a =-19.000      CL = -1.0398
      Cm = -0.0915     CD =  0.05864   =>   CDf =  0.00357    CDp =  0.05507
      9.000    6.0180   0.058637   0.000427   0.000509   0.000082    0.8570     #

 Point added to stored polar  1
 Save file unspecified or not available
 Dump file unspecified or not available

.OPERva   c>   Calculating wake trajectory ...
 Calculating source influence matrix ...

 Solving BL system ...

 Side 1  free  transition at x/c =  0.8570  104
 Side 2  free  transition at x/c =  0.0020   44

   1   rms: 0.8419E-01   max: -.1853E+01   C at   44  2   RLX: 0.270
       a =-18.500      CL = -1.0342
      Cm = -0.0924     CD =  0.05618   =>   CDf =  0.00356    CDp =  0.05262

 Side 1  free  transition at x/c =  0.8568  104
 Side 2  free  transition at x/c =  0.0021   44

   2   rms: 0.6515E-01   max: -.1384E+01   C at   44  2   RLX: 0.361
       a =-18.500      CL = -1.0298
      Cm = -0.0932     CD =  0.05494   =>   CDf =  0.00358    CDp =  0.05136

 Side 1  free  transition at x/c =  0.8566  104
 Side 2  free  transition at x/c =  0.0023   45

   3   rms: 0.5690E-01   max: -.1335E+01   C at   45  2   RLX: 0.375
       a =-18.500      CL = -1.0287
      Cm = -0.0937     CD =  0.05445   =>   CDf =  0.00361    CDp =  0.05085

 Side 1  free  transition at x/c =  0.8564  104
 Side 2  free  transition at x/c =  0.0027   45

   4   rms: 0.8111E-01   max: -.2456E+01   C at   45  2   RLX: 0.204
       a =-18.500      CL = -1.0285
      Cm = -0.0942     CD =  0.05489   =>   CDf =  0.00362    CDp =  0.05127

 Side 1  free  transition at x/c =  0.8564  104
 Side 2  free  transition at x/c =  0.0028   46

   5   rms: 0.5248E-01   max: -.1456E+01   C at   46  2   RLX: 0.343
       a =-18.500      CL = -1.0305
      Cm = -0.0944     CD =  0.05380   =>   CDf =  0.00363    CDp =  0.05018

 Side 1  free  transition at x/c =  0.8563  104
 Side 2  free  transition at x/c =  0.0032   46

   6   rms: 0.5273E-01   max: -.1557E+01   C at   46  2   RLX: 0.321
       a =-18.500      CL = -1.0325
      Cm = -0.0946     CD =  0.05354   =>   CDf =  0.00364    CDp =  0.04990

 Side 1  free  transition at x/c =  0.8563  104
 Side 2  free  transition at x/c =  0.0038   47

   7   rms: 0.2489E-01   max: -.5766E+00   C at   47  2   RLX: 0.867
       a =-18.500      CL = -1.0383
      Cm = -0.0945     CD =  0.05150   =>   CDf =  0.00364    CDp =  0.04786

 Side 1  free  transition at x/c =  0.8562  104
 Side 2  free  transition at x/c =  0.0043   48

   8   rms: 0.8030E-02   max: 0.1658E+00   C at   48  2
       a =-18.500      CL = -1.0419
      Cm = -0.0941     CD =  0.05208   =>   CDf =  0.00365    CDp =  0.04843

 Side 1  free  transition at x/c =  0.8562  104
 Side 2  free  transition at x/c =  0.0041   48

   9   rms: 0.1370E-02   max: 0.2680E-01   C at   48  2
       a =-18.500      CL = -1.0428
      Cm = -0.0939     CD =  0.05248   =>   CDf =  0.00365    CDp =  0.04883

 Side 1  free  transition at x/c =  0.8562  104
 Side 2  free  transition at x/c =  0.0040   48

  10   rms: 0.5629E-04   max: 0.7924E-03   C at   48  2
       a =-18.500      CL = -1.0428
      Cm = -0.0939     CD =  0.05252   =>   CDf =  0.00365    CDp =  0.04887
      9.000    5.9061   0.052521   0.000429   0.000510   0.000080    0.8562     #

 Point added to stored polar  1
 Save file unspecified or not available
 Dump file unspecified or not available

.OPERva   c>   Calculating wake trajectory ...
 Calculating source influence matrix ...

 Solving BL system ...

 Side 1  free  transition at x/c =  0.8562  104
 Side 2  free  transition at x/c =  0.0040   48

   1   rms: 0.1219E+00   max: -.3055E+01   C at   48  2   RLX: 0.164
       a =-18.000      CL = -1.0403
      Cm = -0.0944     CD =  0.05095   =>   CDf =  0.00365    CDp =  0.04730

 Side 1  free  transition at x/c =  0.8561  104
 Side 2  free  transition at x/c =  0.0044   48

   2   rms: 0.8562E-01   max: -.2211E+01   C at   48  2   RLX: 0.226
       a =-18.000      CL = -1.0362
      Cm = -0.0948     CD =  0.05035   =>   CDf =  0.00366    CDp =  0.04670

 Side 1  free  transition at x/c =  0.8560  104
 Side 2  free  transition at x/c =  0.0050   49

   3   rms: 0.5388E-01   max: -.8603E+00   C at   49  2   RLX: 0.581
       a =-18.000      CL = -1.0289
      Cm = -0.0961     CD =  0.04769   =>   CDf =  0.00381    CDp =  0.04388

 Side 1  free  transition at x/c =  0.8557  105
 Side 2  free  transition at x/c =  0.0054   48

   4   rms: 0.2251E-01   max: -.2366E+00   C at   48  2
       a =-18.000      CL = -1.0244
      Cm = -0.0961     CD =  0.04681   =>   CDf =  0.00369    CDp =  0.04312

 Side 1  free  transition at x/c =  0.8555  105
 Side 2  free  transition at x/c =  0.0060   49

   5   rms: 0.1002E-01   max: 0.1651E+00   C at   49  2
       a =-18.000      CL = -1.0301
      Cm = -0.0958     CD =  0.04749   =>   CDf =  0.00369    CDp =  0.04380

 Side 1  free  transition at x/c =  0.8555  105
 Side 2  free  transition at x/c =  0.0056   49

   6   rms: 0.1473E-02   max: -.1699E-01   C at   49  2
       a =-18.000      CL = -1.0309
      Cm = -0.0956     CD =  0.04790   =>   CDf =  0.00371    CDp =  0.04419

 Side 1  free  transition at x/c =  0.8555  105
 Side 2  free  transition at x/c =  0.0057   49

   7   rms: 0.1718E-03   max: 0.1542E-02   C at   49  2
       a =-18.000      CL = -1.0311
      Cm = -0.0956     CD =  0.04795   =>   CDf =  0.00370    CDp =  0.04425

 Side 1  free  transition at x/c =  0.8555  105
 Side 2  free  transition at x/c =  0.0057   49

   8   rms: 0.1078E-04   max: 0.1002E-03   C at   49  2
       a =-18.000      CL = -1.0311
      Cm = -0.0956     CD =  0.04795   =>   CDf =  0.00370    CDp =  0.04425
      9.000    5.8007   0.047955   0.000433   0.000511   0.000078    0.8555     #

 Point added to stored polar  1
 Save file unspecified or not available
 Dump file unspecified or not available

.OPERva   c>   Calculating wake trajectory ...
 Calculating source influence matrix ...

 Solving BL system ...

 Side 1  free  transition at x/c =  0.8555  105
 Side 2  free  transition at x/c =  0.0057   49

   1   rms: 0.7106E-01   max: -.7686E+00   C at   49  2   RLX: 0.650
       a =-17.500      CL = -1.0133
      Cm = -0.0973     CD =  0.04353   =>   CDf =  0.00370    CDp =  0.03983

 Side 1  free  transition at x/c =  0.8549  105
 Side 2  free  transition at x/c =  0.0062   49

   2   rms: 0.2656E-01   max: -.1967E+00   C at   49  2
       a =-17.500      CL = -1.0044
      Cm = -0.0976     CD =  0.04306   =>   CDf =  0.00374    CDp =  0.03932

 Side 1  free  transition at x/c =  0.8545  104
 Side 2  free  transition at x/c =  0.0069   50

   3   rms: 0.1218E-01   max: -.1655E+00   D at   50  2
       a =-17.500      CL = -1.0113
      Cm = -0.0973     CD =  0.04354   =>   CDf =  0.00374    CDp =  0.03980

 Side 1  free  transition at x/c =  0.8545  104
 Side 2  free  transition at x/c =  0.0066   50

   4   rms: 0.2021E-02   max: -.1250E-01   D at  200  2
       a =-17.500      CL = -1.0124
      Cm = -0.0971     CD =  0.04399   =>   CDf =  0.00375    CDp =  0.04024

 Side 1  free  transition at x/c =  0.8545  104
 Side 2  free  transition at x/c =  0.0066   50

   5   rms: 0.3102E-03   max: -.1834E-02   D at  199  2
       a =-17.500      CL = -1.0127
      Cm = -0.0971     CD =  0.04407   =>   CDf =  0.00375    CDp =  0.04031

 Side 1  free  transition at x/c =  0.8545  104
 Side 2  free  transition at x/c =  0.0066   50

   6   rms: 0.3557E-04   max: -.1950E-03   D at  200  2
       a =-17.500      CL = -1.0127
      Cm = -0.0971     CD =  0.04408   =>   CDf =  0.00375    CDp =  0.04032
      9.000    5.7095   0.044075   0.000438   0.000513   0.000076    0.8545     #

 Point added to stored polar  1
 Save file unspecified or not available
 Dump file unspecified or not available

.OPERva   c>   Calculating wake trajectory ...
 Calculating source influence matrix ...

 Solving BL system ...

 Side 1  free  transition at x/c =  0.8545  104
 Side 2  free  transition at x/c =  0.0066   50

   1   rms: 0.6754E-01   max: -.4220E+00   C at   50  2
       a =-17.000      CL = -0.9832
      Cm = -0.0995     CD =  0.03795   =>   CDf =  0.00375    CDp =  0.03420

 Side 1  free  transition at x/c =  0.8540  104
 Side 2  free  transition at x/c =  0.0071   50

   2   rms: 0.1492E-01   max: -.2115E+00   C at   50  2
       a =-17.000      CL = -0.9863
      Cm = -0.0988     CD =  0.04011   =>   CDf =  0.00379    CDp =  0.03632

 Side 1  free  transition at x/c =  0.8539  104
 Side 2  free  transition at x/c =  0.0074   51

   3   rms: 0.3880E-02   max: -.5707E-01   D at   51  2
       a =-17.000      CL = -0.9891
      Cm = -0.0984     CD =  0.04063   =>   CDf =  0.00379    CDp =  0.03685

 Side 1  free  transition at x/c =  0.8539  104
 Side 2  free  transition at x/c =  0.0073   51

   4   rms: 0.2833E-03   max: -.6116E-02   D at   51  2
       a =-17.000      CL = -0.9893
      Cm = -0.0984     CD =  0.04067   =>   CDf =  0.00379    CDp =  0.03689

 Side 1  free  transition at x/c =  0.8539  104
 Side 2  free  transition at x/c =  0.0073   51

   5   rms: 0.1810E-04   max: -.1392E-03   D at   51  2
       a =-17.000      CL = -0.9893
      Cm = -0.0984     CD =  0.04068   =>   CDf =  0.00379    CDp =  0.03689
      9.000    5.5844   0.040677   0.000443   0.000513   0.000070    0.8539     #

 Point added to stored polar  1
 Save file unspecified or not available
 Dump file unspecified or not available

.OPERva   c>   Calculating wake trajectory ...
 Calculating source influence matrix ...

 Solving BL system ...

 Side 1  free  transition at x/c =  0.8539  104
 Side 2  free  transition at x/c =  0.0073   51

   1   rms: 0.6600E-01   max: 0.2461E+00   D at   51  2
       a =-16.500      CL = -0.9573
      Cm = -0.1007     CD =  0.03522   =>   CDf =  0.00393    CDp =  0.03129

 Side 1  free  transition at x/c =  0.8533  105
 Side 2  free  transition at x/c =  0.0081   50

   2   rms: 0.1300E-01   max: 0.6157E-01   C at   50  2
       a =-16.500      CL = -0.9616
      Cm = -0.1001     CD =  0.03695   =>   CDf =  0.00382    CDp =  0.03313

 Side 1  free  transition at x/c =  0.8532  105
 Side 2  free  transition at x/c =  0.0079   50

   3   rms: 0.2683E-02   max: -.1638E-01   D at  196  2
       a =-16.500      CL = -0.9642
      Cm = -0.0997     CD =  0.03740   =>   CDf =  0.00382    CDp =  0.03359

 Side 1  free  transition at x/c =  0.8532  105
 Side 2  free  transition at x/c =  0.0079   50

   4   rms: 0.2220E-03   max: -.1495E-02   D at  196  2
       a =-16.500      CL = -0.9644
      Cm = -0.0997     CD =  0.03744   =>   CDf =  0.00382    CDp =  0.03362

 Side 1  free  transition at x/c =  0.8532  105
 Side 2  free  transition at x/c =  0.0079   50

   5   rms: 0.4411E-04   max: -.2134E-03   D at  196  2
       a =-16.500      CL = -0.9644
      Cm = -0.0997     CD =  0.03744   =>   CDf =  0.00382    CDp =  0.03363
      9.000    5.4849   0.037443   0.000448   0.000515   0.000067    0.8532     #

 Point added to stored polar  1
 Save file unspecified or not available
 Dump file unspecified or not available

.OPERva   c>   Calculating wake trajectory ...
 Calculating source influence matrix ...

 Solving BL system ...

 Side 1  free  transition at x/c =  0.8532  105
 Side 2  free  transition at x/c =  0.0079   50

   1   rms: 0.6504E-01   max: -.2089E+00   C at   50  2
       a =-16.000      CL = -0.9292
      Cm = -0.1017     CD =  0.03278   =>   CDf =  0.00381    CDp =  0.02896

 Side 1  free  transition at x/c =  0.8520  105
 Side 2  free  transition at x/c =  0.0085   51

   2   rms: 0.1190E-01   max: -.5701E-01   D at  105  1
       a =-16.000      CL = -0.9335
      Cm = -0.1012     CD =  0.03418   =>   CDf =  0.00385    CDp =  0.03034

 Side 1  free  transition at x/c =  0.8522  105
 Side 2  free  transition at x/c =  0.0085   51

   3   rms: 0.2173E-02   max: -.1383E-01   D at  195  2
       a =-16.000      CL = -0.9356
      Cm = -0.1009     CD =  0.03453   =>   CDf =  0.00385    CDp =  0.03068

 Side 1  free  transition at x/c =  0.8522  105
 Side 2  free  transition at x/c =  0.0085   51

   4   rms: 0.1951E-03   max: -.1202E-02   D at  195  2
       a =-16.000      CL = -0.9358
      Cm = -0.1009     CD =  0.03455   =>   CDf =  0.00385    CDp =  0.03071

 Side 1  free  transition at x/c =  0.8522  105
 Side 2  free  transition at x/c =  0.0085   51

   5   rms: 0.3271E-04   max: -.1538E-03   D at  195  2
       a =-16.000      CL = -0.9358
      Cm = -0.1009     CD =  0.03456   =>   CDf =  0.00385    CDp =  0.03071
      9.000    5.3183   0.034557   0.000453   0.000515   0.000062    0.8522     #

 Point added to stored polar  1
 Save file unspecified or not available
 Dump file unspecified or not available

.OPERva   c>   Calculating wake trajectory ...
 Calculating source influence matrix ...

 Solving BL system ...

 Side 1  free  transition at x/c =  0.8522  105
 Side 2  free  transition at x/c =  0.0085   51

   1   rms: 0.6819E-01   max: 0.3053E+00   D at   51  2
       a =-15.500      CL = -0.9001
      Cm = -0.1030     CD =  0.03010   =>   CDf =  0.00398    CDp =  0.02612

 Side 1  free  transition at x/c =  0.8502  106
 Side 2  free  transition at x/c =  0.0091   50

   2   rms: 0.1226E-01   max: -.9973E-01   D at  106  1
       a =-15.500      CL = -0.9038
      Cm = -0.1024     CD =  0.03148   =>   CDf =  0.00388    CDp =  0.02760

 Side 1  free  transition at x/c =  0.8505  106
 Side 2  free  transition at x/c =  0.0092   50

   3   rms: 0.1881E-02   max: -.1303E-01   D at  193  2
       a =-15.500      CL = -0.9054
      Cm = -0.1021     CD =  0.03180   =>   CDf =  0.00387    CDp =  0.02793

 Side 1  free  transition at x/c =  0.8505  106
 Side 2  free  transition at x/c =  0.0091   50

   4   rms: 0.1418E-03   max: -.9733E-03   D at  193  2
       a =-15.500      CL = -0.9055
      Cm = -0.1021     CD =  0.03182   =>   CDf =  0.00387    CDp =  0.02795

 Side 1  free  transition at x/c =  0.8505  106
 Side 2  free  transition at x/c =  0.0091   50

   5   rms: 0.2211E-04   max: -.1070E-03   D at  193  2
       a =-15.500      CL = -0.9055
      Cm = -0.1021     CD =  0.03182   =>   CDf =  0.00387    CDp =  0.02795
      9.000    5.0220   0.031822   0.000460   0.000514   0.000054    0.8505     #

 Point added to stored polar  1
 Save file unspecified or not available
 Dump file unspecified or not available

.OPERva   c>   Calculating wake trajectory ...
 Calculating source influence matrix ...

 Solving BL system ...

 Side 1  free  transition at x/c =  0.8505  106
 Side 2  free  transition at x/c =  0.0091   50

   1   rms: 0.6762E-01   max: -.1916E+00   D at  106  2
       a =-15.000      CL = -0.8670
      Cm = -0.1039     CD =  0.02796   =>   CDf =  0.00387    CDp =  0.02409

 Side 1  free  transition at x/c =  0.8487  105
 Side 2  free  transition at x/c =  0.0097   51

   2   rms: 0.1098E-01   max: -.4935E-01   D at  192  2
       a =-15.000      CL = -0.8706
      Cm = -0.1036     CD =  0.02905   =>   CDf =  0.00390    CDp =  0.02515

 Side 1  free  transition at x/c =  0.8485  105
 Side 2  free  transition at x/c =  0.0097   51

   3   rms: 0.2042E-02   max: -.1267E-01   D at  192  2
       a =-15.000      CL = -0.8721
      Cm = -0.1034     CD =  0.02931   =>   CDf =  0.00390    CDp =  0.02541

 Side 1  free  transition at x/c =  0.8485  105
 Side 2  free  transition at x/c =  0.0097   51

   4   rms: 0.1650E-03   max: -.8073E-03   D at  191  2
       a =-15.000      CL = -0.8722
      Cm = -0.1034     CD =  0.02934   =>   CDf =  0.00390    CDp =  0.02544

 Side 1  free  transition at x/c =  0.8485  105
 Side 2  free  transition at x/c =  0.0097   51

   5   rms: 0.2270E-04   max: -.1079E-03   D at  192  2
       a =-15.000      CL = -0.8723
      Cm = -0.1034     CD =  0.02934   =>   CDf =  0.00390    CDp =  0.02544
      9.000    4.7829   0.029341   0.000466   0.000507   0.000041    0.8485     #

 Point added to stored polar  1
 Save file unspecified or not available
 Dump file unspecified or not available

.OPERva   c>   Calculating wake trajectory ...
 Calculating source influence matrix ...

 Solving BL system ...

 Side 1  free  transition at x/c =  0.8485  105
 Side 2  free  transition at x/c =  0.0097   51

   1   rms: 0.6980E-01   max: 0.2757E+00   D at   51  2
       a =-14.500      CL = -0.8332
      Cm = -0.1053     CD =  0.02562   =>   CDf =  0.00403    CDp =  0.02159

 Side 1  free  transition at x/c =  0.8463  106
 Side 2  free  transition at x/c =  0.0103   50

   2   rms: 0.1003E-01   max: -.4639E-01   D at  190  2
       a =-14.500      CL = -0.8357
      Cm = -0.1049     CD =  0.02675   =>   CDf =  0.00392    CDp =  0.02283

 Side 1  free  transition at x/c =  0.8464  106
 Side 2  free  transition at x/c =  0.0104   50

   3   rms: 0.1732E-02   max: -.8824E-02   D at  190  2
       a =-14.500      CL = -0.8371
      Cm = -0.1047     CD =  0.02695   =>   CDf =  0.00391    CDp =  0.02304

 Side 1  free  transition at x/c =  0.8464  106
 Side 2  free  transition at x/c =  0.0104   50

   4   rms: 0.1173E-03   max: -.5890E-03   D at  186  2
       a =-14.500      CL = -0.8372
      Cm = -0.1047     CD =  0.02696   =>   CDf =  0.00391    CDp =  0.02305

 Side 1  free  transition at x/c =  0.8464  106
 Side 2  free  transition at x/c =  0.0104   50

   5   rms: 0.1923E-04   max: -.9239E-04   D at  186  2
       a =-14.500      CL = -0.8372
      Cm = -0.1047     CD =  0.02696   =>   CDf =  0.00391    CDp =  0.02305
      9.000    4.5283   0.026963   0.000473   0.000503   0.000030    0.8464     #

 Point added to stored polar  1
 Save file unspecified or not available
 Dump file unspecified or not available

.OPERva   c>   Calculating wake trajectory ...
 Calculating source influence matrix ...

 Solving BL system ...

 Side 1  free  transition at x/c =  0.8464  106
 Side 2  free  transition at x/c =  0.0104   50

   1   rms: 0.6920E-01   max: -.1804E+00   D at  107  2
       a =-14.000      CL = -0.7948
      Cm = -0.1066     CD =  0.02380   =>   CDf =  0.00391    CDp =  0.01989

 Side 1  free  transition at x/c =  0.8428  105
 Side 2  free  transition at x/c =  0.0109   51

   2   rms: 0.1067E-01   max: -.6200E-01   C at  105  1
       a =-14.000      CL = -0.7979
      Cm = -0.1064     CD =  0.02461   =>   CDf =  0.00394    CDp =  0.02066

 Side 1  free  transition at x/c =  0.8432  105
 Side 2  free  transition at x/c =  0.0110   51

   3   rms: 0.1819E-02   max: -.1022E-01   D at  186  2
       a =-14.000      CL = -0.7990
      Cm = -0.1062     CD =  0.02478   =>   CDf =  0.00394    CDp =  0.02084

 Side 1  free  transition at x/c =  0.8432  105
 Side 2  free  transition at x/c =  0.0109   51

   4   rms: 0.1733E-03   max: -.9333E-03   D at  186  2
       a =-14.000      CL = -0.7992
      Cm = -0.1062     CD =  0.02479   =>   CDf =  0.00394    CDp =  0.02085

 Side 1  free  transition at x/c =  0.8432  105
 Side 2  free  transition at x/c =  0.0109   51

   5   rms: 0.2104E-04   max: -.1108E-03   D at  186  2
       a =-14.000      CL = -0.7992
      Cm = -0.1062     CD =  0.02479   =>   CDf =  0.00394    CDp =  0.02086
      9.000    4.0682   0.024795   0.000482   0.000489   0.000007    0.8432     #

 Point added to stored polar  1
 Save file unspecified or not available
 Dump file unspecified or not available

.OPERva   c>   Calculating wake trajectory ...
 Calculating source influence matrix ...

 Solving BL system ...

 Side 1  free  transition at x/c =  0.8432  105
 Side 2  free  transition at x/c =  0.0109   51

   1   rms: 0.7416E-01   max: 0.2883E+00   D at   51  2
       a =-13.500      CL = -0.7559
      Cm = -0.1082     CD =  0.02172   =>   CDf =  0.00406    CDp =  0.01767

 Side 1  free  transition at x/c =  0.8371  105
 Side 2  free  transition at x/c =  0.0118   50

   2   rms: 0.1051E-01   max: -.9613E-01   C at  105  1
       a =-13.500      CL = -0.7576
      Cm = -0.1081     CD =  0.02256   =>   CDf =  0.00395    CDp =  0.01860

 Side 1  free  transition at x/c =  0.8391  106
 Side 2  free  transition at x/c =  0.0118   50

   3   rms: 0.9446E-02   max: 0.2222E+00   C at  106  1
       a =-13.500      CL = -0.7591
      Cm = -0.1079     CD =  0.02269   =>   CDf =  0.00393    CDp =  0.01876

 Side 1  free  transition at x/c =  0.8379  106
 Side 2  free  transition at x/c =  0.0118   50

   4   rms: 0.8578E-03   max: -.2210E-01   D at  107  1
       a =-13.500      CL = -0.7594
      Cm = -0.1079     CD =  0.02271   =>   CDf =  0.00395    CDp =  0.01876

 Side 1  free  transition at x/c =  0.8378  106
 Side 2  free  transition at x/c =  0.0118   50

   5   rms: 0.5255E-04   max: -.3732E-03   D at  107  1
       a =-13.500      CL = -0.7594
      Cm = -0.1079     CD =  0.02271   =>   CDf =  0.00395    CDp =  0.01876
      9.000    3.5729   0.022708   0.000000   0.000000   0.000000    0.8378     #

 Point added to stored polar  1
 Save file unspecified or not available
 Dump file unspecified or not available

.OPERva   c>   Calculating wake trajectory ...
 Calculating source influence matrix ...

 Solving BL system ...

 Side 1  free  transition at x/c =  0.8378  106
 Side 2  free  transition at x/c =  0.0118   50

   1   rms: 0.7524E-01   max: -.4753E+00   D at  106  1
       a =-13.000      CL = -0.7160
      Cm = -0.1094     CD =  0.02023   =>   CDf =  0.00406    CDp =  0.01616

 Side 1  free  transition at x/c =  0.7405   90
 Side 2  free  transition at x/c =  0.0124   50

   2   rms: 0.1378E-01   max: -.2091E+00   D at  107  1
       a =-13.000      CL = -0.7145
      Cm = -0.1102     CD =  0.02101   =>   CDf =  0.00423    CDp =  0.01678

 Side 1  free  transition at x/c =  0.7391   89
 Side 2  free  transition at x/c =  0.0126   50

   3   rms: 0.1595E-02   max: -.1083E-01   D at  182  2
       a =-13.000      CL = -0.7152
      Cm = -0.1101     CD =  0.02111   =>   CDf =  0.00423    CDp =  0.01688

 Side 1  free  transition at x/c =  0.7391   89
 Side 2  free  transition at x/c =  0.0126   50

   4   rms: 0.1458E-03   max: 0.1378E-02   C at   89  1
       a =-13.000      CL = -0.7152
      Cm = -0.1101     CD =  0.02112   =>   CDf =  0.00423    CDp =  0.01689

 Side 1  free  transition at x/c =  0.7391   89
 Side 2  free  transition at x/c =  0.0126   50

   5   rms: 0.1701E-04   max: 0.1577E-03   C at   89  1
       a =-13.000      CL = -0.7152
      Cm = -0.1101     CD =  0.02112   =>   CDf =  0.00423    CDp =  0.01689
      9.000    2.8425   0.021122   0.000000   0.000000   0.000000    0.7391     #

 Point added to stored polar  1
 Save file unspecified or not available
 Dump file unspecified or not available

.OPERva   c>   Calculating wake trajectory ...
 Calculating source influence matrix ...

 Solving BL system ...

 Side 1  free  transition at x/c =  0.7391   89
 Side 2  free  transition at x/c =  0.0126   50

   1   rms: 0.4211E+00   max: 0.1189E+02   C at   89  1   RLX: 0.126
       a =-12.500      CL = -0.7090
      Cm = -0.1104     CD =  0.02089   =>   CDf =  0.00423    CDp =  0.01666

 Side 1  free  transition at x/c =  0.7277   88
 Side 2  free  transition at x/c =  0.0127   50

   2   rms: 0.2042E+00   max: 0.5813E+01   C at   88  1   RLX: 0.258
       a =-12.500      CL = -0.6978
      Cm = -0.1110     CD =  0.02056   =>   CDf =  0.00426    CDp =  0.01630

 Side 1  free  transition at x/c =  0.7136   85
 Side 2  free  transition at x/c =  0.0129   50

   3   rms: 0.1122E+00   max: 0.3062E+01   C at   85  1   RLX: 0.490
       a =-12.500      CL = -0.6815
      Cm = -0.1119     CD =  0.02002   =>   CDf =  0.00430    CDp =  0.01572

 Side 1  free  transition at x/c =  0.6985   83
 Side 2  free  transition at x/c =  0.0132   50

   4   rms: 0.3886E-01   max: 0.8017E+00   C at   83  1
       a =-12.500      CL = -0.6648
      Cm = -0.1130     CD =  0.01937   =>   CDf =  0.00435    CDp =  0.01502

 Side 1  free  transition at x/c =  0.6876   81
 Side 2  free  transition at x/c =  0.0135   50

   5   rms: 0.6056E-02   max: -.1351E+00   C at   81  1
       a =-12.500      CL = -0.6642
      Cm = -0.1133     CD =  0.01954   =>   CDf =  0.00439    CDp =  0.01515

 Side 1  free  transition at x/c =  0.6887   81
 Side 2  free  transition at x/c =  0.0135   50

   6   rms: 0.4796E-03   max: 0.6107E-02   C at   81  1
       a =-12.500      CL = -0.6643
      Cm = -0.1133     CD =  0.01957   =>   CDf =  0.00438    CDp =  0.01518

 Side 1  free  transition at x/c =  0.6886   81
 Side 2  free  transition at x/c =  0.0135   50

   7   rms: 0.4641E-04   max: -.2969E-03   D at  180  2
       a =-12.500      CL = -0.6643
      Cm = -0.1133     CD =  0.01957   =>   CDf =  0.00438    CDp =  0.01518
      9.000    2.8784   0.019568   0.000000   0.000000   0.000000    0.6886     #

 Point added to stored polar  1
 Save file unspecified or not available
 Dump file unspecified or not available

.OPERva   c>   Calculating wake trajectory ...
 Calculating source influence matrix ...

 Solving BL system ...

 Side 1  free  transition at x/c =  0.6886   81
 Side 2  free  transition at x/c =  0.0135   50

   1   rms: 0.1348E+00   max: 0.3467E+01   C at   81  1   RLX: 0.433
       a =-12.000      CL = -0.6409
      Cm = -0.1144     CD =  0.01883   =>   CDf =  0.00449    CDp =  0.01434

 Side 1  free  transition at x/c =  0.6735   79
 Side 2  free  transition at x/c =  0.0139   50

   2   rms: 0.6074E-01   max: 0.1142E+01   C at   79  1
       a =-12.000      CL = -0.6102
      Cm = -0.1167     CD =  0.01767   =>   CDf =  0.00443    CDp =  0.01324

 Side 1  free  transition at x/c =  0.6569   76
 Side 2  free  transition at x/c =  0.0148   50

   3   rms: 0.1088E-01   max: -.2740E+00   C at   76  1
       a =-12.000      CL = -0.6088
      Cm = -0.1172     CD =  0.01795   =>   CDf =  0.00448    CDp =  0.01347

 Side 1  free  transition at x/c =  0.6598   77
 Side 2  free  transition at x/c =  0.0148   50

   4   rms: 0.1919E-02   max: 0.5533E-01   C at   77  1
       a =-12.000      CL = -0.6088
      Cm = -0.1173     CD =  0.01798   =>   CDf =  0.00447    CDp =  0.01351

 Side 1  free  transition at x/c =  0.6593   77
 Side 2  free  transition at x/c =  0.0148   50

   5   rms: 0.6801E-04   max: -.4741E-03   D at  178  2
       a =-12.000      CL = -0.6088
      Cm = -0.1173     CD =  0.01799   =>   CDf =  0.00447    CDp =  0.01351
      9.000    2.8934   0.017985   0.000000   0.000000   0.000000    0.6593     #

 Point added to stored polar  1
 Save file unspecified or not available
 Dump file unspecified or not available

.OPERva   c>   Calculating wake trajectory ...
 Calculating source influence matrix ...

 Solving BL system ...

 Side 1  free  transition at x/c =  0.6593   77
 Side 2  free  transition at x/c =  0.0148   50

   1   rms: 0.1156E+00   max: 0.2647E+01   C at   77  1   RLX: 0.567
       a =-11.500      CL = -0.5766
      Cm = -0.1190     CD =  0.01706   =>   CDf =  0.00457    CDp =  0.01249

 Side 1  free  transition at x/c =  0.6440   75
 Side 2  free  transition at x/c =  0.0153   50

   2   rms: 0.4365E-01   max: 0.5619E+00   C at   75  1
       a =-11.500      CL = -0.5499
      Cm = -0.1212     CD =  0.01637   =>   CDf =  0.00452    CDp =  0.01185

 Side 1  free  transition at x/c =  0.6339   74
 Side 2  free  transition at x/c =  0.0165   50

   3   rms: 0.1141E-01   max: -.2076E+00   C at   50  2
       a =-11.500      CL = -0.5488
      Cm = -0.1217     CD =  0.01650   =>   CDf =  0.00455    CDp =  0.01196

 Side 1  free  transition at x/c =  0.6355   74
 Side 2  free  transition at x/c =  0.0163   50

   4   rms: 0.7014E-03   max: 0.1450E-01   C at   50  2
       a =-11.500      CL = -0.5486
      Cm = -0.1217     CD =  0.01655   =>   CDf =  0.00454    CDp =  0.01201

 Side 1  free  transition at x/c =  0.6355   74
 Side 2  free  transition at x/c =  0.0163   50

   5   rms: 0.1340E-04   max: 0.9043E-04   D at  184  2
       a =-11.500      CL = -0.5487
      Cm = -0.1217     CD =  0.01655   =>   CDf =  0.00454    CDp =  0.01201
      9.000    2.8846   0.016546   0.000000   0.000000   0.000000    0.6355     #

 Point added to stored polar  1
 Save file unspecified or not available
 Dump file unspecified or not available

.OPERva   c>   Calculating wake trajectory ...
 Calculating source influence matrix ...

 Solving BL system ...

 Side 1  free  transition at x/c =  0.6355   74
 Side 2  free  transition at x/c =  0.0163   50

   1   rms: 0.1086E+00   max: 0.2223E+01   C at   74  1   RLX: 0.675
       a =-11.000      CL = -0.5081
      Cm = -0.1241     CD =  0.01554   =>   CDf =  0.00463    CDp =  0.01091

 Side 1  free  transition at x/c =  0.6195   72
 Side 2  free  transition at x/c =  0.0172   50

   2   rms: 0.3571E-01   max: 0.3662E+00   C at   72  1
       a =-11.000      CL = -0.4861
      Cm = -0.1261     CD =  0.01511   =>   CDf =  0.00459    CDp =  0.01052

 Side 1  free  transition at x/c =  0.6132   71
 Side 2  free  transition at x/c =  0.0185   50

   3   rms: 0.7588E-02   max: -.1702E+00   C at   50  2
       a =-11.000      CL = -0.4847
      Cm = -0.1265     CD =  0.01520   =>   CDf =  0.00460    CDp =  0.01060

 Side 1  free  transition at x/c =  0.6139   71
 Side 2  free  transition at x/c =  0.0184   50

   4   rms: 0.3830E-03   max: 0.8338E-02   C at   50  2
       a =-11.000      CL = -0.4846
      Cm = -0.1265     CD =  0.01522   =>   CDf =  0.00460    CDp =  0.01062

 Side 1  free  transition at x/c =  0.6139   71
 Side 2  free  transition at x/c =  0.0184   50

   5   rms: 0.1431E-04   max: -.1294E-03   D at  173  2
       a =-11.000      CL = -0.4846
      Cm = -0.1265     CD =  0.01522   =>   CDf =  0.00460    CDp =  0.01062
      9.000    2.9044   0.015224   0.000000   0.000000   0.000000    0.6139     #

 Point added to stored polar  1
 Save file unspecified or not available
 Dump file unspecified or not available

.OPERva   c>   Calculating wake trajectory ...
 Calculating source influence matrix ...

 Solving BL system ...

 Side 1  free  transition at x/c =  0.6139   71
 Side 2  free  transition at x/c =  0.0184   50

   1   rms: 0.1079E+00   max: 0.2201E+01   C at   71  1   RLX: 0.682
       a =-10.500      CL = -0.4416
      Cm = -0.1291     CD =  0.01433   =>   CDf =  0.00468    CDp =  0.00965

 Side 1  free  transition at x/c =  0.5976   69
 Side 2  free  transition at x/c =  0.0203   50

   2   rms: 0.3439E-01   max: -.3982E+00   C at   50  2
       a =-10.500      CL = -0.4188
      Cm = -0.1312     CD =  0.01390   =>   CDf =  0.00464    CDp =  0.00926

 Side 1  free  transition at x/c =  0.5921   68
 Side 2  free  transition at x/c =  0.0214   51

   3   rms: 0.7864E-02   max: -.1195E+00   C at   68  1
       a =-10.500      CL = -0.4174
      Cm = -0.1317     CD =  0.01395   =>   CDf =  0.00466    CDp =  0.00930

 Side 1  free  transition at x/c =  0.5927   69
 Side 2  free  transition at x/c =  0.0220   51

   4   rms: 0.2023E-02   max: -.4602E-01   C at   69  1
       a =-10.500      CL = -0.4172
      Cm = -0.1318     CD =  0.01397   =>   CDf =  0.00465    CDp =  0.00932

 Side 1  free  transition at x/c =  0.5929   69
 Side 2  free  transition at x/c =  0.0219   51

   5   rms: 0.2829E-04   max: 0.6067E-03   C at   69  1
       a =-10.500      CL = -0.4172
      Cm = -0.1318     CD =  0.01397   =>   CDf =  0.00465    CDp =  0.00932
      9.000    2.9373   0.013974   0.000000   0.000000   0.000000    0.5929     #

 Point added to stored polar  1
 Save file unspecified or not available
 Dump file unspecified or not available

.OPERva   c>   Calculating wake trajectory ...
 Calculating source influence matrix ...

 Solving BL system ...

 Side 1  free  transition at x/c =  0.5929   69
 Side 2  free  transition at x/c =  0.0219   51

   1   rms: 0.1131E+00   max: 0.1808E+01   C at   69  1   RLX: 0.523
       a =-10.000      CL = -0.3830
      Cm = -0.1340     CD =  0.01329   =>   CDf =  0.00472    CDp =  0.00857

 Side 1  free  transition at x/c =  0.5814   68
 Side 2  free  transition at x/c =  0.0231   50

   2   rms: 0.4953E-01   max: 0.6291E+00   C at   68  1
       a =-10.000      CL = -0.3501
      Cm = -0.1361     CD =  0.01295   =>   CDf =  0.00469    CDp =  0.00826

 Side 1  free  transition at x/c =  0.5725   66
 Side 2  free  transition at x/c =  0.0267   52

   3   rms: 0.1080E-01   max: -.1126E+00   C at   52  2
       a =-10.000      CL = -0.3472
      Cm = -0.1372     CD =  0.01277   =>   CDf =  0.00469    CDp =  0.00807

 Side 1  free  transition at x/c =  0.5734   66
 Side 2  free  transition at x/c =  0.0272   52

   4   rms: 0.9816E-03   max: 0.1193E-01   C at   66  1
       a =-10.000      CL = -0.3467
      Cm = -0.1373     CD =  0.01280   =>   CDf =  0.00469    CDp =  0.00811

 Side 1  free  transition at x/c =  0.5733   66
 Side 2  free  transition at x/c =  0.0272   52

   5   rms: 0.5291E-04   max: -.4344E-03   D at  168  2
       a =-10.000      CL = -0.3467
      Cm = -0.1373     CD =  0.01281   =>   CDf =  0.00469    CDp =  0.00812
      9.000    2.9725   0.012808   0.000000   0.000000   0.000000    0.5733     #

 Point added to stored polar  1
 Save file unspecified or not available
 Dump file unspecified or not available

.OPERva   c>   Calculating wake trajectory ...
 Calculating source influence matrix ...

 Solving BL system ...

 Side 1  free  transition at x/c =  0.5733   66
 Side 2  free  transition at x/c =  0.0272   52

   1   rms: 0.1197E+00   max: 0.1993E+01   C at   66  1   RLX: 0.316
       a = -9.500      CL = -0.3249
      Cm = -0.1389     CD =  0.01242   =>   CDf =  0.00469    CDp =  0.00773

 Side 1  free  transition at x/c =  0.5665   65
 Side 2  free  transition at x/c =  0.0283   52

   2   rms: 0.6802E-01   max: 0.1160E+01   C at   65  1
       a = -9.500      CL = -0.2781
      Cm = -0.1416     CD =  0.01188   =>   CDf =  0.00477    CDp =  0.00711

 Side 1  free  transition at x/c =  0.5528   64
 Side 2  free  transition at x/c =  0.0365   54

   3   rms: 0.2138E-01   max: -.3099E+00   C at   54  2
       a = -9.500      CL = -0.2729
      Cm = -0.1436     CD =  0.01155   =>   CDf =  0.00471    CDp =  0.00683

 Side 1  free  transition at x/c =  0.5545   64
 Side 2  free  transition at x/c =  0.0370   54

   4   rms: 0.1292E-02   max: 0.1875E-01   D at   51  2
       a = -9.500      CL = -0.2727
      Cm = -0.1435     CD =  0.01165   =>   CDf =  0.00471    CDp =  0.00694

 Side 1  free  transition at x/c =  0.5544   64
 Side 2  free  transition at x/c =  0.0368   54

   5   rms: 0.1149E-03   max: 0.8141E-03   C at   54  2
       a = -9.500      CL = -0.2727
      Cm = -0.1435     CD =  0.01165   =>   CDf =  0.00471    CDp =  0.00694

 Side 1  free  transition at x/c =  0.5544   64
 Side 2  free  transition at x/c =  0.0368   54

   6   rms: 0.1134E-04   max: 0.8454E-04   C at   54  2
       a = -9.500      CL = -0.2727
      Cm = -0.1435     CD =  0.01165   =>   CDf =  0.00471    CDp =  0.00694
      9.000    3.0253   0.011655   0.000000   0.000000   0.000000    0.5544     #

 Point added to stored polar  1
 Save file unspecified or not available
 Dump file unspecified or not available

.OPERva   c>   Calculating wake trajectory ...
 Calculating source influence matrix ...

 Solving BL system ...

 Side 1  free  transition at x/c =  0.5544   64
 Side 2  free  transition at x/c =  0.0368   54

   1   rms: 0.1349E+00   max: -.2307E+01   C at   54  2   RLX: 0.217
       a = -9.000      CL = -0.2570
      Cm = -0.1447     CD =  0.01139   =>   CDf =  0.00475    CDp =  0.00663

 Side 1  free  transition at x/c =  0.5503   64
 Side 2  free  transition at x/c =  0.0385   53

   2   rms: 0.8947E-01   max: -.1368E+01   C at   53  2   RLX: 0.365
       a = -9.000      CL = -0.2368
      Cm = -0.1459     CD =  0.01120   =>   CDf =  0.00472    CDp =  0.00648

 Side 1  free  transition at x/c =  0.5445   63
 Side 2  free  transition at x/c =  0.0424   54

   3   rms: 0.4798E-01   max: 0.4638E+00   C at   63  1
       a = -9.000      CL = -0.2003
      Cm = -0.1486     CD =  0.01073   =>   CDf =  0.00476    CDp =  0.00596

 Side 1  free  transition at x/c =  0.5357   63
 Side 2  free  transition at x/c =  0.0521   55

   4   rms: 0.1650E-01   max: -.3433E+00   C at   55  2
       a = -9.000      CL = -0.1960
      Cm = -0.1501     CD =  0.01049   =>   CDf =  0.00471    CDp =  0.00578

 Side 1  free  transition at x/c =  0.5367   63
 Side 2  free  transition at x/c =  0.0529   56

   5   rms: 0.1966E-02   max: -.3002E-01   D at   55  2
       a = -9.000      CL = -0.1955
      Cm = -0.1503     CD =  0.01051   =>   CDf =  0.00471    CDp =  0.00580

 Side 1  free  transition at x/c =  0.5366   63
 Side 2  free  transition at x/c =  0.0535   56

   6   rms: 0.2214E-03   max: -.3537E-02   D at   56  2
       a = -9.000      CL = -0.1954
      Cm = -0.1503     CD =  0.01051   =>   CDf =  0.00471    CDp =  0.00581

 Side 1  free  transition at x/c =  0.5366   63
 Side 2  free  transition at x/c =  0.0534   56

   7   rms: 0.1485E-04   max: -.9557E-04   D at  162  2
       a = -9.000      CL = -0.1954
      Cm = -0.1503     CD =  0.01051   =>   CDf =  0.00471    CDp =  0.00581
      9.000    3.0784   0.010513   0.000000   0.000000   0.000000    0.5366     #

 Point added to stored polar  1
 Save file unspecified or not available
 Dump file unspecified or not available

.OPERva   c>   Calculating wake trajectory ...
 Calculating source influence matrix ...

 Solving BL system ...

 Side 1  free  transition at x/c =  0.5366   63
 Side 2  free  transition at x/c =  0.0534   56

   1   rms: 0.1437E+00   max: 0.1775E+01   D at   56  2   RLX: 0.717
       a = -8.500      CL = -0.1381
      Cm = -0.1557     CD =  0.00939   =>   CDf =  0.00473    CDp =  0.00466

 Side 1  free  transition at x/c =  0.5234   63
 Side 2  free  transition at x/c =  0.0575   55

   2   rms: 0.3921E-01   max: -.7402E+00   D at   55  2   RLX: 0.676
       a = -8.500      CL = -0.1276
      Cm = -0.1545     CD =  0.00988   =>   CDf =  0.00477    CDp =  0.00511

 Side 1  free  transition at x/c =  0.5217   63
 Side 2  free  transition at x/c =  0.0590   56

   3   rms: 0.3171E-01   max: -.7553E+00   D at   55  2   RLX: 0.662
       a = -8.500      CL = -0.1228
      Cm = -0.1554     CD =  0.00976   =>   CDf =  0.00476    CDp =  0.00500

 Side 1  free  transition at x/c =  0.5211   63
 Side 2  free  transition at x/c =  0.0800   58

   4   rms: 0.2868E-01   max: -.7627E+00   C at   58  2   RLX: 0.656
       a = -8.500      CL = -0.1164
      Cm = -0.1575     CD =  0.00935   =>   CDf =  0.00465    CDp =  0.00470

 Side 1  free  transition at x/c =  0.5207   63
 Side 2  free  transition at x/c =  0.0877   59

   5   rms: 0.2379E-01   max: -.6342E+00   C at   59  2   RLX: 0.788
       a = -8.500      CL = -0.1119
      Cm = -0.1588     CD =  0.00913   =>   CDf =  0.00462    CDp =  0.00451

 Side 1  free  transition at x/c =  0.5204   63
 Side 2  free  transition at x/c =  0.0896   60

   6   rms: 0.5335E-02   max: 0.5587E-01   D at   60  2
       a = -8.500      CL = -0.1105
      Cm = -0.1591     CD =  0.00910   =>   CDf =  0.00462    CDp =  0.00448

 Side 1  free  transition at x/c =  0.5203   63
 Side 2  free  transition at x/c =  0.0921   60

   7   rms: 0.1328E-02   max: -.7692E-02   D at  127  2
       a = -8.500      CL = -0.1100
      Cm = -0.1593     CD =  0.00908   =>   CDf =  0.00462    CDp =  0.00446

 Side 1  free  transition at x/c =  0.5203   63
 Side 2  free  transition at x/c =  0.0921   60

   8   rms: 0.1253E-03   max: -.1020E-02   C at   60  2
       a = -8.500      CL = -0.1099
      Cm = -0.1593     CD =  0.00908   =>   CDf =  0.00462    CDp =  0.00446

 Side 1  free  transition at x/c =  0.5203   63
 Side 2  free  transition at x/c =  0.0921   60

   9   rms: 0.9647E-05   max: -.8323E-04   C at   60  2
       a = -8.500      CL = -0.1099
      Cm = -0.1593     CD =  0.00908   =>   CDf =  0.00462    CDp =  0.00446
      9.000    3.1210   0.009080   0.000000   0.000000   0.000000    0.5203     #

 Point added to stored polar  1
 Save file unspecified or not available
 Dump file unspecified or not available

.OPERva   c>   Calculating wake trajectory ...
 Calculating source influence matrix ...

 Solving BL system ...

 Side 1  free  transition at x/c =  0.5203   63
 Side 2  free  transition at x/c =  0.0921   60

   1   rms: 0.2993E+00   max: -.4085E+01   C at   60  2   RLX: 0.122
       a = -8.000      CL = -0.0974
      Cm = -0.1611     CD =  0.00874   =>   CDf =  0.00462    CDp =  0.00412

 Side 1  free  transition at x/c =  0.5184   62
 Side 2  free  transition at x/c =  0.0979   60

   2   rms: 0.1848E+00   max: -.5826E+01   C at   60  2   RLX: 0.086
       a = -8.000      CL = -0.0921
      Cm = -0.1610     CD =  0.00880   =>   CDf =  0.00461    CDp =  0.00419

 Side 1  free  transition at x/c =  0.5176   62
 Side 2  free  transition at x/c =  0.1036   61

   3   rms: 0.1577E+00   max: -.3512E+01   C at   61  2   RLX: 0.142
       a = -8.000      CL = -0.0819
      Cm = -0.1623     CD =  0.00859   =>   CDf =  0.00459    CDp =  0.00400

 Side 1  free  transition at x/c =  0.5161   63
 Side 2  free  transition at x/c =  0.1075   60

   4   rms: 0.1140E+00   max: -.2906E+01   C at   60  2   RLX: 0.172
       a = -8.000      CL = -0.0733
      Cm = -0.1627     CD =  0.00856   =>   CDf =  0.00458    CDp =  0.00398

 Side 1  free  transition at x/c =  0.5144   63
 Side 2  free  transition at x/c =  0.1164   61

   5   rms: 0.9497E-01   max: -.2544E+01   C at   61  2   RLX: 0.197
       a = -8.000      CL = -0.0639
      Cm = -0.1637     CD =  0.00839   =>   CDf =  0.00455    CDp =  0.00384

 Side 1  free  transition at x/c =  0.5128   63
 Side 2  free  transition at x/c =  0.1198   62

   6   rms: 0.9845E-01   max: 0.1164E+01   D at   62  2   RLX: 0.971
       a = -8.000      CL = -0.0224
      Cm = -0.1687     CD =  0.00755   =>   CDf =  0.00456    CDp =  0.00299

 Side 1  free  transition at x/c =  0.5070   63
 Side 2  free  transition at x/c =  0.1266   61

   7   rms: 0.2334E-01   max: -.5116E+00   C at   61  2   RLX: 0.977
       a = -8.000      CL = -0.0281
      Cm = -0.1664     CD =  0.00809   =>   CDf =  0.00458    CDp =  0.00351

 Side 1  free  transition at x/c =  0.5070   63
 Side 2  free  transition at x/c =  0.1564   64

   8   rms: 0.7567E-01   max: -.2381E+01   C at   64  2   RLX: 0.210
       a = -8.000      CL = -0.0243
      Cm = -0.1683     CD =  0.00768   =>   CDf =  0.00445    CDp =  0.00323

 Side 1  free  transition at x/c =  0.5070   63
 Side 2  free  transition at x/c =  0.1597   65

   9   rms: 0.5136E-01   max: 0.6095E+00   D at   65  2
       a = -8.000      CL = -0.0144
      Cm = -0.1709     CD =  0.00723   =>   CDf =  0.00444    CDp =  0.00279

 Side 1  free  transition at x/c =  0.5066   63
 Side 2  free  transition at x/c =  0.1693   65

  10   rms: 0.8271E-02   max: -.2587E+00   C at   65  2
       a = -8.000      CL = -0.0168
      Cm = -0.1701     CD =  0.00743   =>   CDf =  0.00442    CDp =  0.00301
 VISCAL:  Convergence failed
      9.000    3.1546   0.007434   0.000000   0.000000   0.000000    0.5066     #

.OPERva   c>   Calculating wake trajectory ...
 Calculating source influence matrix ...

 Solving BL system ...

 Side 1  free  transition at x/c =  0.5067   63
 Side 2  free  transition at x/c =  0.1705   66

   1   rms: 0.2053E+00   max: 0.2526E+01   D at   66  2   RLX: 0.470
       a = -7.500      CL =  0.0243
      Cm = -0.1742     CD =  0.00676   =>   CDf =  0.00441    CDp =  0.00234

 Side 1  free  transition at x/c =  0.5001   63
 Side 2  free  transition at x/c =  0.1795   66

   2   rms: 0.4201E-01   max: -.4369E+00   C at   66  2
       a = -7.500      CL =  0.0525
      Cm = -0.1731     CD =  0.00717   =>   CDf =  0.00444    CDp =  0.00273

 Side 1  free  transition at x/c =  0.4960   63
 Side 2  free  transition at x/c =  0.2305   70

   3   rms: 0.1207E+00   max: -.3725E+01   C at   70  2   RLX: 0.134
       a = -7.500      CL =  0.0557
      Cm = -0.1746     CD =  0.00659   =>   CDf =  0.00427    CDp =  0.00232

 Side 1  free  transition at x/c =  0.4959   63
 Side 2  free  transition at x/c =  0.2347   70

   4   rms: 0.2311E+00   max: -.8136E+01   C at   70  2   RLX: 0.061
       a = -7.500      CL =  0.0566
      Cm = -0.1748     CD =  0.00657   =>   CDf =  0.00426    CDp =  0.00231

 Side 1  free  transition at x/c =  0.4959   63
 Side 2  free  transition at x/c =  0.2359   71

   5   rms: 0.8009E-01   max: 0.1143E+01   D at   71  2   RLX: 0.768
       a = -7.500      CL =  0.0662
      Cm = -0.1774     CD =  0.00623   =>   CDf =  0.00426    CDp =  0.00198

 Side 1  free  transition at x/c =  0.4956   63
 Side 2  free  transition at x/c =  0.2443   71

   6   rms: 0.1435E-01   max: -.4774E+00   C at   71  2
       a = -7.500      CL =  0.0636
      Cm = -0.1765     CD =  0.00649   =>   CDf =  0.00424    CDp =  0.00225

 Side 1  free  transition at x/c =  0.4956   63
 Side 2  free  transition at x/c =  0.2545   72

   7   rms: 0.5309E-02   max: -.1512E+00   C at   72  2
       a = -7.500      CL =  0.0648
      Cm = -0.1769     CD =  0.00641   =>   CDf =  0.00420    CDp =  0.00221

 Side 1  free  transition at x/c =  0.4956   63
 Side 2  free  transition at x/c =  0.2539   72

   8   rms: 0.2433E-03   max: -.4665E-02   C at   72  2
       a = -7.500      CL =  0.0647
      Cm = -0.1768     CD =  0.00642   =>   CDf =  0.00420    CDp =  0.00222

 Side 1  free  transition at x/c =  0.4956   63
 Side 2  free  transition at x/c =  0.2540   72

   9   rms: 0.1117E-05   max: 0.1128E-04   C at   72  2
       a = -7.500      CL =  0.0647
      Cm = -0.1768     CD =  0.00642   =>   CDf =  0.00420    CDp =  0.00222
      9.000    3.1508   0.006417   0.000000   0.000000   0.000000    0.4956     #

 Point added to stored polar  1
 Save file unspecified or not available
 Dump file unspecified or not available

.OPERva   c>   Calculating wake trajectory ...
 Calculating source influence matrix ...

 Solving BL system ...

 Side 1  free  transition at x/c =  0.4956   63
 Side 2  free  transition at x/c =  0.2540   72

   1   rms: 0.2198E+00   max: -.6603E+01   C at   72  2   RLX: 0.076
       a = -7.000      CL =  0.0702
      Cm = -0.1771     CD =  0.00638   =>   CDf =  0.00420    CDp =  0.00218

 Side 1  free  transition at x/c =  0.4949   63
 Side 2  free  transition at x/c =  0.2571   73

   2   rms: 0.1167E+00   max: 0.1309E+01   D at   73  2
       a = -7.000      CL =  0.1361
      Cm = -0.1804     CD =  0.00594   =>   CDf =  0.00420    CDp =  0.00174

 Side 1  free  transition at x/c =  0.4848   64
 Side 2  free  transition at x/c =  0.2664   71

   3   rms: 0.4890E-01   max: -.8471E+00   D at   71  2   RLX: 0.590
       a = -7.000      CL =  0.1344
      Cm = -0.1792     CD =  0.00634   =>   CDf =  0.00427    CDp =  0.00207

 Side 1  free  transition at x/c =  0.4851   64
 Side 2  free  transition at x/c =  0.2886   73

   4   rms: 0.1476E+00   max: -.5147E+01   C at   73  2   RLX: 0.097
       a = -7.000      CL =  0.1338
      Cm = -0.1796     CD =  0.00609   =>   CDf =  0.00416    CDp =  0.00193

 Side 1  free  transition at x/c =  0.4851   64
 Side 2  free  transition at x/c =  0.2910   74

   5   rms: 0.8411E-01   max: 0.1343E+01   D at   74  2   RLX: 0.774
       a = -7.000      CL =  0.1381
      Cm = -0.1810     CD =  0.00580   =>   CDf =  0.00415    CDp =  0.00165

 Side 1  free  transition at x/c =  0.4852   64
 Side 2  free  transition at x/c =  0.3005   74

   6   rms: 0.1757E-01   max: -.4896E+00   C at   74  2
       a = -7.000      CL =  0.1352
      Cm = -0.1802     CD =  0.00601   =>   CDf =  0.00411    CDp =  0.00190

 Side 1  free  transition at x/c =  0.4853   64
 Side 2  free  transition at x/c =  0.3188   76

   7   rms: 0.5618E-02   max: -.7364E-01   C at   76  2
       a = -7.000      CL =  0.1371
      Cm = -0.1808     CD =  0.00588   =>   CDf =  0.00406    CDp =  0.00182

 Side 1  free  transition at x/c =  0.4852   64
 Side 2  free  transition at x/c =  0.3177   76

   8   rms: 0.1107E-02   max: -.2026E-01   C at   76  2
       a = -7.000      CL =  0.1369
      Cm = -0.1807     CD =  0.00589   =>   CDf =  0.00405    CDp =  0.00183

 Side 1  free  transition at x/c =  0.4853   64
 Side 2  free  transition at x/c =  0.3180   76

   9   rms: 0.4546E-05   max: -.5755E-04   C at   76  2
       a = -7.000      CL =  0.1369
      Cm = -0.1807     CD =  0.00589   =>   CDf =  0.00405    CDp =  0.00183
      9.000    3.1327   0.005888   0.000000   0.000000   0.000000    0.4853     #

 Point added to stored polar  1
 Save file unspecified or not available
 Dump file unspecified or not available

.OPERva   c>   Calculating wake trajectory ...
 Calculating source influence matrix ...

 Solving BL system ...

 Side 1  free  transition at x/c =  0.4853   64
 Side 2  free  transition at x/c =  0.3180   76

   1   rms: 0.1651E+00   max: -.3800E+01   C at   76  2   RLX: 0.132
       a = -6.500      CL =  0.1461
      Cm = -0.1811     CD =  0.00583   =>   CDf =  0.00405    CDp =  0.00178

 Side 1  free  transition at x/c =  0.4842   64
 Side 2  free  transition at x/c =  0.3228   76

   2   rms: 0.1175E+00   max: -.3145E+01   C at   76  2   RLX: 0.159
       a = -6.500      CL =  0.1554
      Cm = -0.1814     CD =  0.00583   =>   CDf =  0.00405    CDp =  0.00179

 Side 1  free  transition at x/c =  0.4829   64
 Side 2  free  transition at x/c =  0.3317   77

   3   rms: 0.1030E+00   max: -.2608E+01   C at   77  2   RLX: 0.192
       a = -6.500      CL =  0.1648
      Cm = -0.1817     CD =  0.00576   =>   CDf =  0.00403    CDp =  0.00173

 Side 1  free  transition at x/c =  0.4814   64
 Side 2  free  transition at x/c =  0.3354   78

   4   rms: 0.7795E-01   max: 0.9606E+00   D at   78  2
       a = -6.500      CL =  0.2056
      Cm = -0.1835     CD =  0.00557   =>   CDf =  0.00402    CDp =  0.00154

 Side 1  free  transition at x/c =  0.4746   64
 Side 2  free  transition at x/c =  0.3439   77

   5   rms: 0.1878E-01   max: -.3739E+00   C at   77  2
       a = -6.500      CL =  0.2035
      Cm = -0.1828     CD =  0.00573   =>   CDf =  0.00405    CDp =  0.00169

 Side 1  free  transition at x/c =  0.4747   64
 Side 2  free  transition at x/c =  0.3616   79

   6   rms: 0.5812E-02   max: 0.7964E-01   C at   79  2
       a = -6.500      CL =  0.2047
      Cm = -0.1832     CD =  0.00564   =>   CDf =  0.00399    CDp =  0.00165

 Side 1  free  transition at x/c =  0.4747   64
 Side 2  free  transition at x/c =  0.3579   79

   7   rms: 0.1481E-02   max: 0.2843E-01   D at   79  2
       a = -6.500      CL =  0.2045
      Cm = -0.1831     CD =  0.00565   =>   CDf =  0.00400    CDp =  0.00166

 Side 1  free  transition at x/c =  0.4747   64
 Side 2  free  transition at x/c =  0.3583   79

   8   rms: 0.4622E-04   max: -.9010E-03   D at   79  2
       a = -6.500      CL =  0.2045
      Cm = -0.1831     CD =  0.00565   =>   CDf =  0.00399    CDp =  0.00166
      9.000    3.1560   0.005653   0.000000   0.000000   0.000000    0.4747     #

 Point added to stored polar  1
 Save file unspecified or not available
 Dump file unspecified or not available

.OPERva   c>   Calculating wake trajectory ...
 Calculating source influence matrix ...

 Solving BL system ...

 Side 1  free  transition at x/c =  0.4747   64
 Side 2  free  transition at x/c =  0.3583   79

   1   rms: 0.1160E+00   max: 0.1376E+01   D at   79  2   RLX: 0.636
       a = -6.000      CL =  0.2477
      Cm = -0.1847     CD =  0.00548   =>   CDf =  0.00400    CDp =  0.00148

 Side 1  free  transition at x/c =  0.4678   65
 Side 2  free  transition at x/c =  0.3656   78

   2   rms: 0.3210E-01   max: -.2172E+00   T at   78  2
       a = -6.000      CL =  0.2688
      Cm = -0.1845     CD =  0.00566   =>   CDf =  0.00402    CDp =  0.00164

 Side 1  free  transition at x/c =  0.4645   66
 Side 2  free  transition at x/c =  0.3903   80

   3   rms: 0.7780E-02   max: 0.1666E+00   D at   77  2
       a = -6.000      CL =  0.2704
      Cm = -0.1850     CD =  0.00554   =>   CDf =  0.00397    CDp =  0.00157

 Side 1  free  transition at x/c =  0.4643   66
 Side 2  free  transition at x/c =  0.3873   79

   4   rms: 0.1129E-02   max: -.2845E-01   D at   79  2
       a = -6.000      CL =  0.2703
      Cm = -0.1850     CD =  0.00554   =>   CDf =  0.00397    CDp =  0.00157

 Side 1  free  transition at x/c =  0.4643   66
 Side 2  free  transition at x/c =  0.3867   79

   5   rms: 0.3932E-04   max: -.7340E-03   C at   79  2
       a = -6.000      CL =  0.2703
      Cm = -0.1850     CD =  0.00555   =>   CDf =  0.00397    CDp =  0.00157
      9.000    3.1749   0.005545   0.000000   0.000000   0.000000    0.4643     #

 Point added to stored polar  1
 Save file unspecified or not available
 Dump file unspecified or not available

.OPERva   c>   Calculating wake trajectory ...
 Calculating source influence matrix ...

 Solving BL system ...

 Side 1  free  transition at x/c =  0.4643   66
 Side 2  free  transition at x/c =  0.3867   79

   1   rms: 0.9203E-01   max: -.1024E+01   C at   79  2   RLX: 0.488
       a = -5.500      CL =  0.3017
      Cm = -0.1857     CD =  0.00554   =>   CDf =  0.00397    CDp =  0.00157

 Side 1  free  transition at x/c =  0.4598   66
 Side 2  free  transition at x/c =  0.3891   78

   2   rms: 0.3911E-01   max: 0.2567E+00   C at   66  1
       a = -5.500      CL =  0.3338
      Cm = -0.1862     CD =  0.00561   =>   CDf =  0.00400    CDp =  0.00161

 Side 1  free  transition at x/c =  0.4549   67
 Side 2  free  transition at x/c =  0.4064   79

   3   rms: 0.1022E-01   max: 0.2034E+00   C at   79  2
       a = -5.500      CL =  0.3349
      Cm = -0.1865     CD =  0.00552   =>   CDf =  0.00398    CDp =  0.00155

 Side 1  free  transition at x/c =  0.4553   67
 Side 2  free  transition at x/c =  0.4030   79

   4   rms: 0.1038E-02   max: -.1569E-01   D at   79  2
       a = -5.500      CL =  0.3348
      Cm = -0.1865     CD =  0.00553   =>   CDf =  0.00399    CDp =  0.00155

 Side 1  free  transition at x/c =  0.4553   67
 Side 2  free  transition at x/c =  0.4025   79

   5   rms: 0.2445E-04   max: -.4671E-03   D at   79  2
       a = -5.500      CL =  0.3348
      Cm = -0.1865     CD =  0.00553   =>   CDf =  0.00399    CDp =  0.00155
      9.000    3.1995   0.005534   0.000000   0.000000   0.000000    0.4553     #

 Point added to stored polar  1
 Save file unspecified or not available
 Dump file unspecified or not available

.OPERva   c>   Calculating wake trajectory ...
 Calculating source influence matrix ...

 Solving BL system ...

 Side 1  free  transition at x/c =  0.4553   67
 Side 2  free  transition at x/c =  0.4025   79

   1   rms: 0.8743E-01   max: 0.7134E+00   D at   79  2
       a = -5.000      CL =  0.3990
      Cm = -0.1879     CD =  0.00554   =>   CDf =  0.00399    CDp =  0.00155

 Side 1  free  transition at x/c =  0.4461   67
 Side 2  free  transition at x/c =  0.4080   78

   2   rms: 0.1411E-01   max: -.2210E+00   C at   78  2
       a = -5.000      CL =  0.3986
      Cm = -0.1878     CD =  0.00557   =>   CDf =  0.00403    CDp =  0.00154

 Side 1  free  transition at x/c =  0.4466   67
 Side 2  free  transition at x/c =  0.4110   78

   3   rms: 0.1043E-02   max: -.3006E-01   C at   78  2
       a = -5.000      CL =  0.3986
      Cm = -0.1878     CD =  0.00557   =>   CDf =  0.00402    CDp =  0.00155

 Side 1  free  transition at x/c =  0.4466   67
 Side 2  free  transition at x/c =  0.4108   78

   4   rms: 0.1815E-02   max: -.5487E-01   C at   78  2
       a = -5.000      CL =  0.3986
      Cm = -0.1878     CD =  0.00557   =>   CDf =  0.00402    CDp =  0.00155

 Side 1  free  transition at x/c =  0.4466   67
 Side 2  free  transition at x/c =  0.4108   78

   5   rms: 0.1810E-02   max: -.5474E-01   C at   78  2
       a = -5.000      CL =  0.3986
      Cm = -0.1878     CD =  0.00557   =>   CDf =  0.00402    CDp =  0.00155

 Side 1  free  transition at x/c =  0.4466   67
 Side 2  free  transition at x/c =  0.4108   78

   6   rms: 0.1810E-02   max: -.5474E-01   C at   78  2
       a = -5.000      CL =  0.3986
      Cm = -0.1878     CD =  0.00557   =>   CDf =  0.00402    CDp =  0.00155

 Side 1  free  transition at x/c =  0.4466   67
 Side 2  free  transition at x/c =  0.4108   78

   7   rms: 0.1810E-02   max: -.5474E-01   C at   78  2
       a = -5.000      CL =  0.3986
      Cm = -0.1878     CD =  0.00557   =>   CDf =  0.00402    CDp =  0.00155

 Side 1  free  transition at x/c =  0.4466   67
 Side 2  free  transition at x/c =  0.4108   78

   8   rms: 0.1810E-02   max: -.5474E-01   C at   78  2
[...]
       a = 22.500      CL =  1.8268
      Cm = -0.1706     CD =  0.19915   =>   CDf =  0.00346    CDp =  0.19569

 Side 1  free  transition at x/c =  0.0004   50
 Side 2  free  transition at x/c =  0.5734   50

   4   rms: 0.1639E-01   max: -.2711E+00   C at   50  2
       a = 22.500      CL =  1.8200
      Cm = -0.1709     CD =  0.19520   =>   CDf =  0.00345    CDp =  0.19175

 Side 1  free  transition at x/c =  0.0004   50
 Side 2  free  transition at x/c =  0.5741   50

   5   rms: 0.7907E-02   max: -.1905E+00   C at   50  2
       a = 22.500      CL =  1.8190
      Cm = -0.1707     CD =  0.19288   =>   CDf =  0.00343    CDp =  0.18944

 Side 1  free  transition at x/c =  0.0004   50
 Side 2  free  transition at x/c =  0.5743   50

   6   rms: 0.4249E-02   max: -.1226E+00   C at   50  2
       a = 22.500      CL =  1.8183
      Cm = -0.1706     CD =  0.19169   =>   CDf =  0.00343    CDp =  0.18825

 Side 1  free  transition at x/c =  0.0004   50
 Side 2  free  transition at x/c =  0.5744   50

      9.000   17.7077   0.184098   0.009643   0.000601  -0.009042    0.0004     #

 Point added to stored polar  1
 Save file unspecified or not available
 Dump file unspecified or not available

.OPERva   c>   Calcula Side 2  free  transition at x/c =  0.5745   50

   8   rms: 0.3165E-02   max: -.9781E-01   C at   50  2
       a = 22.500      CL =  1.8183
      Cm = -0.1706     CD =  0.19152   =>   CDf =  0.00343    CDp =  0.18809

 Side 1  free  transition at x/c =  0.0004   50
 Side 2  free  transition at x/c =  0.5745   50

   9   rms: 0.3170E-02   max: -.9797E-01   C at   50  2
       a = 22.500      CL =  1.8183
      Cm = -0.1706     CD =  0.19152   =>   CDf =  0.00343    CDp =  0.18809

 Side 1  free  transition at x/c =  0.0004   50
 Side 2  free  transition at x/c =  0.5745   50

  10   rms: 0.3170E-02   max: -.9795E-01   C at   50  2
       a = 22.500      CL =  1.8183
      Cm = -0.1706     CD =  0.19152   =>   CDf =  0.00343    CDp =  0.18809
 VISCAL:  Convergence failed
      9.000   17.7062   0.191522   0.008319   0.000311  -0.008008    0.0004     #

.OPERva   c>   Calculating wake trajectory ...
 Calculating source influence matrix ...

 Solving BL system ...

 Side 1  free  transition at x/c =  0.0004   50
 Side 2  free  transition at x/c =  0.5745   50

   1   rms: 0.5238E-01   max: -.2859E+00   C at   50  2   RLX: 0.214
       a = 23.000      CL =  1.8205
      Cm = -0.1719     CD =  0.19571   =>   CDf =  0.00344    CDp =  0.19226

 Side 1  free  transition at x/c =  0.0004   50
 Side 2  free  transition at x/c =  0.5749   51

   2   rms: 0.4132E-01   max: 0.1893E+00   D at  107  1
       a = 23.000      CL =  1.8341
      Cm = -0.1761     CD =  0.20960   =>   CDf =  0.00343    CDp =  0.20618

 Side 1  free  transition at x/c =  0.0004   50
 Side 2  free  transition at x/c =  0.5788   51

   3   rms: 0.3262E-01   max: 0.4542E+00   C at   51  2
       a = 23.000      CL =  1.8235
      Cm = -0.1765     CD =  0.20800   =>   CDf =  0.00337    CDp =  0.20463

 Side 1  free  transition at x/c =  0.0004   50
 Side 2  free  transition at x/c =  0.5767   51

   4   rms: 0.1368E-01   max: 0.7063E-01   D at  144  2
       a = 23.000      CL =  1.8182
      Cm = -0.1763     CD =  0.20225   =>   CDf =  0.00335    CDp =  0.19889

 Side 1  free  transition at x/c =  0.0004   50
 Side 2  free  transition at x/c =  0.5780   51

   5   rms: 0.4886E-02   max: 0.7613E-01   C at   51  2
       a = 23.000      CL =  1.8169
      Cm = -0.1762     CD =  0.19958   =>   CDf =  0.00335    CDp =  0.19623

 Side 1  free  transition at x/c =  0.0004   50
 Side 2  free  transition at x/c =  0.5779   51

   6   rms: 0.1082E-02   max: 0.1207E-01   C at   51  2
       a = 23.000      CL =  1.8165
      Cm = -0.1762     CD =  0.19877   =>   CDf =  0.00335    CDp =  0.19542

 Side 1  free  transition at x/c =  0.0004   50
 Side 2  free  transition at x/c =  0.5780   51

   7   rms: 0.2185E-03   max: 0.2193E-02   C at   51  2
       a = 23.000      CL =  1.8164
      Cm = -0.1762     CD =  0.19860   =>   CDf =  0.00335    CDp =  0.19526

 Side 1  free  transition at x/c =  0.0004   50
 Side 2  free  transition at x/c =  0.5780   51

   8   rms: 0.4439E-04   max: 0.4277E-03   C at   51  2
       a = 23.000      CL =  1.8164
      Cm = -0.1762     CD =  0.19857   =>   CDf =  0.00335    CDp =  0.19522
      9.000   17.9840   0.198570   0.008151   0.000319  -0.007832    0.0004     #

 Point added to stored polar  1
 Save file unspecified or not available
 Dump file unspecified or not available

.OPERva   c>   Calculating wake trajectory ...
 Calculating source influence matrix ...

 Solving BL system ...

 Side 1  free  transition at x/c =  0.0004   50
 Side 2  free  transition at x/c =  0.5780   51

   1   rms: 0.4977E-01   max: 0.2546E+00   D at  106  1   RLX: 0.207
       a = 23.500      CL =  1.8185
      Cm = -0.1774     CD =  0.20261   =>   CDf =  0.00335    CDp =  0.19925

 Side 1  free  transition at x/c =  0.0004   50
 Side 2  free  transition at x/c =  0.5787   51

   2   rms: 0.4109E-01   max: 0.1922E+00   D at  106  1
       a = 23.500      CL =  1.8321
      Cm = -0.1818
 Side 1  free  transition at x/c =  0.0004   43
 Side 2  free  transition at x/c =  0.6099   57

   7   rms: 0.1125E-03   max: 0.2154E-02   D at   57  2
       a = 22.500      CL =  1.7560
      Cm = -0.1697     CD =  0.20039       a = 23.500      CL =  1.8190
      Cm = -0.1831     CD =  0.21796   =>   CDf =  0.00348    CDp =  0.21448

 Side 1  free  transition at x/c =  0.0004   50
 Side 2  free  transition at x/c =  0.5789   51

   4   rms: 0.1539E-01   max: 0.8411E-01   D at  144  2
       a = 23.500      CL =  1.8159
      Cm = -0.1822     CD =  0.21019   =>   CDf =  0.00326    CDp =  0.20693

 Side 1  free  transition at x/c =  0.0004   50
 Side 2  free  transition at x/c =  0.5795   51

   5   rms: 0.7234E-02   max: -.1720E+00   C at   51  2
       a = 23.500      CL =  1.8141
      Cm = -0.1819     CD =  0.20603   =>   CDf =  0.00327    CDp =  0.20276

 Side 1  free  transition at x/c =  0.0004   50
 Side 2  free  transition at x/c =  0.5805   51

   6   rms: 0.7677E-03   max: 0.1943E-01   C at   51  2
       a = 23.500      CL =  1.8141
      Cm = -0.1819     CD =  0.20555   =>   CDf =  0.00326    CDp =  0.20229

 Side 1  free  transition at x/c =  0.0004   50
 Side 2  free  transition at x/c =  0.5805   51

   7   rms: 0.8217E-04   max: -.1601E-02   C at   51  2
       a = 23.500      CL =  1.8142
      Cm = -0.1819     CD =  0.20561   =>   CDf =  0.00326    CDp =  0.20235
      9.000   18.2624   0.205610   0.007977   0.000327  -0.007650    0.0004     #

 Point added to stored polar  1
 Save file unspecified or not available
 Dump file unspecified or not available

.OPERva   c>   Calculating wake trajectory ...
 Calculating source influence matrix ...

 Solving BL system ...

 Side 1  free  transition at x/c =  0.0004   50
 Side 2  free  transition at x/c =  0.5805   51

   1   rms: 0.4909E-01   max: 0.2463E+00   D at  105  1   RLX: 0.201
       a = 24.000      CL =  1.8161
      Cm = -0.1831     CD =  0.20966   =>   CDf =  0.00327    CDp =  0.20639

 Side 1  free  transition at x/c =  0.0004   50
 Side 2  free  transition at x/c =  0.5804   51

   2   rms: 0.4218E-01   max: -.2942E+00   C at   51  2
       a = 24.000      CL =  1.8298
      Cm = -0.1878     CD =  0.22547   =>   CDf =  0.00307    CDp =  0.22240

 Side 1  free  transition at x/c =  0.0004   51
 Side 2  free  transition at x/c =  0.5818   51

   3   rms: 0.4099E-01   max: -.3105E+00   D at   51  2
       a = 24.000      CL =  1.8138
      Cm = -0.1899     CD =  0.22841   =>   CDf =  0.00321    CDp =  0.22520

 Side 1  free  transition at x/c =  0.0004   51
 Side 2  free  transition at x/c =  0.5811   51

   4   rms: 0.1947E-01   max: -.1441E+00   D at   51  2
       a = 24.000      CL =  1.8134
      Cm = -0.1884     CD =  0.21827   =>   CDf =  0.00317    CDp =  0.21510

 Side 1  free  transition at x/c =  0.0004   51
 Side 2  free  transition at x/c =  0.5827   51

   5   rms: 0.4764E-02   max: -.4625E-01   T at  141  2
       a = 24.000      CL =  1.8111
      Cm = -0.1880     CD =  0.21256   =>   CDf =  0.00318    CDp =  0.20939

 Side 1  free  transition at x/c =  0.0004   51
 Side 2  free  transition at x/c =  0.5832   51

   6   rms: 0.1487E-02   max: 0.1707E-01   D at   51  2
       a = 24.000      CL =  1.8117
      Cm = -0.1880     CD =  0.21233   =>   CDf =  0.00318    CDp =  0.20915

 Side 1  free  transition at x/c =  0.0004   51
 Side 2  free  transition at x/c =  0.5833   51

   7   rms: 0.3849E-03   max: -.2647E-02   D at  144  2
       a = 24.000      CL =  1.8118
      Cm = -0.1880     CD =  0.21264   =>   CDf =  0.00318    CDp =  0.20946

 Side 1  free  transition at x/c =  0.0004   51
 Side 2  free  transition at x/c =  0.5833   51

   8   rms: 0.8592E-04   max: -.6791E-03   D at  144  2
       a = 24.000      CL =  1.8118
      Cm = -0.1880     CD =  0.21271   =>   CDf =  0.00318    CDp =  0.20953
      9.000   18.5397   0.212713   0.007797   0.000335  -0.007462    0.0004     #

 Point added to stored polar  1
 Save file unspecified or not available
 Dump file unspecified or not available

.OPERva   c>   Calculating wake trajectory ...
 Calculating source
 Side 1  free  transition at x/c =  0.0004   43
 Side 2  free  transition at x/c =  0.6087   57

   4   rms: 0.2865E-01   max: -.2235E+00   C at   57  2
       a = 23.500      CL =  1.7418
      Cm = -0.1850            a = 24.500      CL =  1.8134
      Cm = -0.1892     CD =  0.21682   =>   CDf =  0.00319    CDp =  0.21364

 Side 1  free  transition at x/c =  0.0004   51
 Side 2  free  transition at x/c =  0.5838   51

   2   rms: 0.4093E-01   max: 0.1973E+00   D at  105  1
       a = 24.500      CL =  1.8270
      Cm = -0.1940     CD =  0.23343   =>   CDf =  0.00317    CDp =  0.23026

 Side 1  free  transition at x/c =  0.0004   51
 Side 2  free  transition at x/c =  0.5861   51

   3   rms: 0.4317E-01   max: 0.6190E+00   C at   51  2
       a = 24.500      CL =  1.8121
      Cm = -0.1961     CD =  0.23663   =>   CDf =  0.00312    CDp =  0.23351

 Side 1  free  transition at x/c =  0.0004   51
 Side 2  free  transition at x/c =  0.5839   51

   4   rms: 0.1977E-01   max: 0.9945E-01   D at  143  2
       a = 24.500      CL =  1.8110
      Cm = -0.1948     CD =  0.22630   =>   CDf =  0.00308    CDp =  0.22321

 Side 1  free  transition at x/c =  0.0004   51
 Side 2  free  transition at x/c =  0.5856   51

   5   rms: 0.5112E-02   max: 0.6929E-01   C at   51  2
       a = 24.500      CL =  1.8089
      Cm = -0.1944     CD =  0.21997   =>   CDf =  0.00309    CDp =  0.21688

 Side 1  free  transition at x/c =  0.0004   51
 Side 2  free  transition at x/c =  0.5859   51

   6   rms: 0.1072E-02   max: 0.1296E-01   D at   51  2
       a = 24.500      CL =  1.8093
      Cm = -0.1944     CD =  0.21954   =>   CDf =  0.00309    CDp =  0.21645

 Side 1  free  transition at x/c =  0.0004   51
 Side 2  free  transition at x/c =  0.5860   51

   7   rms: 0.3414E-03   max: -.5264E-02   C at   51  2
       a = 24.500      CL =  1.8094
      Cm = -0.1944     CD =  0.21982   =>   CDf =  0.00309    CDp =  0.21672

 Side 1  free  transition at x/c =  0.0004   51
 Side 2  free  transition at x/c =  0.5860   51

   8   rms: 0.6872E-04   max: -.8498E-03   C at   51  2
       a = 24.500      CL =  1.8094
      Cm = -0.1944     CD =  0.21987   =>   CDf =  0.00309    CDp =  0.21678
      9.000   18.8129   0.219872   0.007613   0.000344  -0.007270    0.0004     #

 Point added to stored polar  1
 Save file unspecified or not available
 Dump file unspecified or not available

.OPERva   c>   Calculating wake trajectory ...
 Calculating source influence matrix ...

 Solving BL system ...

 Side 1  free  transition at x/c =  0.0004   51
 Side 2  free  transition at x/c =  0.5860   51

   1   rms: 0.4787E-01   max: 0.2434E+00   D at  104  1   RLX: 0.190
       a = 25.000      CL =  1.8108
      Cm = -0.1955     CD =  0.22402   =>   CDf =  0.00310    CDp =  0.22092

 Side 1  free  transition at x/c =  0.0004   51
 Side 2  free  transition at x/c =  0.5864   51

   2   rms: 0.4144E-01   max: 0.2055E+00   D at  104  1
       a = 25.000      CL =  1.8239
      Cm = -0.2006     CD =  0.24207   =>   CDf =  0.00309    CDp =  0.23898

 Side 1  free  transition at x/c =  0.0004   51
 Side 2  free  transition at x/c =  0.5876   52

   3   rms: 0.4201E-01   max: -.4102E+00   D at   52  2
       a = 25.000      CL =  1.8106
      Cm = -0.2023     CD =  0.24390   =>   CDf =  0.00304    CDp =  0.24086

 Side 1  free  transition at x/c =  0.0004   51
 Side 2  free  transition at x/c =  0.5870   52

   4   rms: 0.2103E-01   max: -.2776E+00   D at   52  2
       a = 25.000      CL =  1.8084
      Cm = -0.2013     CD =  0.23370   =>   CDf =  0.00300    CDp =  0.23070

 Side 1  free  transition at x/c =  0.0004   51
 Side 2  free  transition at x/c =  0.5891   52

   5   rms: 0.6431E-02   max: 0.1012E+00   C at   52  2
       a = 25.000      CL =  1.8065
      Cm = -0.2010     CD =  0.22757   =>   CDf =  0.00301    CDp =  0.22456

 Side 1  free  transition at x/c =  0.0004   51
 Side 2  free  transition at x/c =  0.5887   52

   6   rms: 0.6678E-03   max: 0.1145E-01   D at   51  2
       a = 25.000      CL =  1.8066
      Cm = -0.2010     CD =  0.22692   =>   CDf =  0.00301    CDp =  0.22391

 Side 1  free  transit
 Point added to stored polar  1
 Save file unspecified or not available
 Dump file unspecified or not available

.OPERva   c>   Calculating wake trajectory ...
 Calculating source influence matrix ...

 Solving BL system ...

 Side 1  free  transition at x/c =  0.0004   43
 Side 2  free  transition at x/c =  0.6208   59

   1   rms: 0.6284E-01   max: 0.3783E+00   C at   59  2   RLX: 0.181
       a = 24.500      CL =  1.7276
      Cm = -0.1946     CD =  0.23348   =>   CDf =  0.00263    CDp =  0.23085

 Side 1  free  transition at x/c =  0.0004   43
 Side 2  free  transition at x/c =  0.6215   59

   2   rms: 0.5930E-01   max: 0.6146E+00   C at   59  2
       a = 24.500      CL =  1.7366
      Cm = -0.2019     CD =  0.26163   =>   CDf =  0.00241    CDp =  0.25922

 Side 1  free  transition at x/c =  0.0004   44
 Side 2  free  transition at x/c =  0.6230   58

   3   rms: 0.6139E-01   max: -.8031E+00   C at   58  2   RLX: 0.623
       a = 24.500      CL =  1.7328
      Cm = -0.2035     CD =  0.24859   =>   CDf =  0.00271    CDp =  0.24588

 Side 1  free  transition at x/c =  0.0004   43
 Side 2  free  transition at x/c =  0.6178   58

   4   rms: 0.5244E-01   max: -.7412E+00   T at    2  2   RLX: 0.675
       a = 24.500      CL =  1.7245
      Cm = -0.2034     CD =  0.24671   =>   CDf =  0.00251    CDp =  0.24420

 Side 1  free  transition at x/c =  0.0004   43
 Side 2  free  transition at x/c =  0.6205   59

   5   rms: 0.2714E-01   max: 0.3217E+00   C at   59  2
       a = 24.500      CL =  1.7178
      Cm = -0.2027     CD =  0.24758   =>   CDf =  0.00250    CDp =  0.24509

 Side 1  free  transition at x/c =  0.0004   43
 Side 2  free  transition at x/c =  0.6228   59

   6   rms: 0.1258E-01   max: -.2264E+00   C at   59  2
       a = 24.500      CL =  1.7157
      Cm = -0.2024     CD =  0.24041   =>   CDf =  0.00249    CDp =  0.23792

 Side 1  free  transition at x/c =  0.0004   43
 Side 2  free  transition at x/c =  0.6232   59

   7   rms: 0.5703E-02   max: -.1516E+00   C at   59  2
       a = 24.500      CL =  1.7150
      Cm = -0.2023     CD =  0.23780   =>   CDf =  0.00249    CDp =  0.23531

 Side 1  free  transition at x/c =  0.0004   43
 Side 2  free  transition at x/c =  0.6239   60

   8   rms: 0.3892E-02   max: -.6519E-01   C at   60  2
       a = 24.500      CL =  1.7150
      Cm = -0.2023     CD =  0.23738   =>   CDf =  0.00249    CDp =  0.23489

 Side 1  free  transition at x/c =  0.0004   43
 Side 2  free  transition at x/c =  0.6245   60

   9   rms: 0.5202E-03   max: 0.1136E-01   C at   60  2
       a = 24.500      CL =  1.7150
      Cm = -0.2023     CD =  0.23739   =>   CDf =  0.00249    CDp =  0.23490

 Side 1  free  transition at x/c =  0.0004   43
 Side 2  free  transition at x/c =  0.6244   60

  10   rms: 0.1814E-04   max: -.2341E-03   D at   59  2
       a = 24.500      CL =  1.7150
      Cm = -0.2023     CD =  0.23741   =>   CDf =  0.00249    CDp =  0.23492
      9.000   19.2812   0.237408   0.007884   0.000685  -0.007198    0.0004     #

 Point added to stored polar  1
 Save file unspecified or not available
 Dump file unspecified or not available

.OPERva   c>   Calculating wake trajectory ...
 Calculating source influence matrix ...

 Solving BL system ...

 Side 1  free  transition at x/c =  0.0004   43
 Side 2  free  transition at x/c =  0.6244   60

   1   rms: 0.7052E-01   max: 0.4916E+00   C at   60  2   RLX: 0.175
       a = 25.000      CL =  1.7143
      Cm = -0.2040     CD =  0.24419   =>   CDf =  0.00250    CDp =  0.24169

 Side 1  free  transition at x/c =  0.0004   43
 Side 2  free  transition at x/c =  0.6255   60

   2   rms: 0.6875E-01   max: 0.9366E+00   C at   60  2   RLX: 0.960
       a = 25.000      CL =  1.7219
      Cm = -0.2115     CD =  0.27429   =>   CDf =  0.00228    CDp =  0.27201

 Side 1  free  transition at x/c =  0.0004   44
 Side 2  free  transition at x/c =  0.6290   59

   3   rms: 0.7955E-01   max: -.1522E+01   C at   59  2   RLX: 0.329
       a = 25.000      CL =  1.7232
      Cm = -0.2137     CD =  0.25075   =>   CDf =  0.00239    CDp =  0.24836

 Side 1  free  transition at x/c =  0.0004   44
 Side 2  free  transition at x/c =  0.6240   59

   4   rms: 0.6840E-01   max: 0.1187E+01   C at   59  2   RLX: 0.586
       a = 25.000      CL =  1.7156
      Cm = -0.2131     CD =  0.25733   =>   CDf =  0.00238    CDp =  0.25495

 MRCHDU: Convergence failed at  59  side 2    Res =  0.6195E+01
 Side 1  free  transition at x/c =  0.0004   44
 Side 2  free  transition at x/c =  0.6329   60

   5   rms: 0.9355E-01   max: 0.2636E+01   C at   60  2   RLX: 0.569
       a = 25.000      CL =  1.7100
      Cm = -0.2131     CD =  0.25455   =>   CDf =  0.00236    CDp =  0.25219

 Side 1  free  transition at x/c =  0.0004   44
 Side 2  free  transition at x/c =  0.6256   59

   6   rms: 0.4838E-01   max: 0.1227E+01   C at   59  2
       a = 25.000      CL =  1.7038
      Cm = -0.2127     CD =  0.25889   =>   CDf =  0.00236    CDp =  0.25653

 Side 1  free  transition at x/c =  0.0004   44
 Side 2  free  transition at x/c =  0.6287   59

   7   rms: 0.1449E-01   max: -.2636E+00   C at   59  2
       a = 25.000      CL =  1.7018
      Cm = -0.2124     CD =  0.25153   =>   CDf =  0.00236    CDp =  0.24917

 Side 1  free  transition at x/c =  0.0004   44
 Side 2  free  transition at x/c =  0.6265   59

   8   rms: 0.3964E-02   max: -.6998E-01   C at   59  2
       a = 25.000      CL =  1.7010
      Cm = -0.2122     CD =  0.24844   =>   CDf =  0.00236    CDp =  0.24609

 Side 1  free  transition at x/c =  0.0004   44
 Side 2  free  transition at x/c =  0.6279   59

   9   rms: 0.5149E-03   max: 0.1143E-01   D at   59  2
       a = 25.000      CL =  1.7010
      Cm = -0.2122     CD =  0.24785   =>   CDf =  0.00236    CDp =  0.24549

 Side 1  free  transition at x/c =  0.0004   44
 Side 2  free  transition at x/c =  0.6281   59

  10   rms: 0.1620E-03   max: -.3527E-02   C at   59  2
       a = 25.000      CL =  1.7010
      Cm = -0.2122     CD =  0.24787   =>   CDf =  0.00236    CDp =  0.24552
 VISCAL:  Convergence failed
      9.000   19.5372   0.247872   0.007399   0.000692  -0.006708    0.0004     #

.OPERva   c>  
        airfoil                    Re           Mach       NcritT  NcritB  XtripT  XtripB       file
       ------------------------  ------------  ----------  ------  ------  ------  ------    -------------------
 >  1                            6.846e6       0.226         9.00    9.00   1.000   1.000    

Enter polar output filename   s>  
.OPERva   c>  
 XFOIL   c>  