
This summary file was generated by TurbSim (v2.00.08a-bjj, 18-Jul-2017) on 24-Jul-2020 at 16:38:38.


Runtime Options:

        12  Random seed #1
    RANLUX  Type of random number generator
         F  Output binary HH turbulence parameters?
         F  Output formatted turbulence parameters?
         F  Output AeroDyn HH files?
         T  Output AeroDyn FF files?
         F  Output BLADED FF files?
         F  Output tower data?
         F  Output formatted FF files?
         F  Output coherent turbulence time step file?
         T  Clockwise rotation when looking downwind?
 0 -  NONE  IEC turbulence models scaled to exact specified standard deviation


Turbine/Model Specifications:

        25  Vertical grid-point matrix dimension
        25  Horizontal grid-point matrix dimension
     0.050  Time step [seconds]
   180.000  Analysis time [seconds]
   180.000  Usable output time [seconds]
   140.000  Hub height [m]
   266.000  Grid height [m]
   266.000  Grid width [m]
     0.000  Vertical flow angle [degrees]
     0.000  Horizontal flow angle [degrees]


Meteorological Boundary Conditions:

    IECKAI  IEC Kaimal spectral model
         1  IEC standard: IEC 61400-1 Ed. 3: 2005
         A  IEC turbulence characteristic
       NTM  IEC Normal Turbulence Model
       N/A  IEC Extreme Turbulence Model (ETM) "c" parameter [m/s]
       PL   Wind profile type
   140.000  Reference height [m]
    17.000  Reference wind speed [m/s]
       N/A  Jet height [m]
     0.200  Power law exponent
     0.030  Surface roughness length [m]


Non-IEC Meteorological Boundary Conditions:

       N/A  Site latitude [degrees]
       N/A  Gradient Richardson number
       N/A  Friction or shear velocity [m/s]
       N/A  Mixing layer depth [m]
       N/A  Mean hub u'w' Reynolds stress
       N/A  Mean hub u'v' Reynolds stress
       N/A  Mean hub v'w' Reynolds stress


Spatial Coherence Models:

   GENERAL  u-component coherence model
   GENERAL  v-component coherence model
   GENERAL  w-component coherence model
(   12.000, 0.353E-03)  u-component coherence parameters
(*********,  0.00    )  v-component coherence parameters
(*********,  0.00    )  w-component coherence parameters
     0.000  Coherence exponent


You have requested that the following file(s) be generated:

   /home/mertzb/Documents/Analysis/BAR10/temp/Testing/Testing_powercurve_NTM_U17.000000_Seed12.0.bts (AeroDyn/TurbSim full-field wind file)


Turbulence Simulation Scaling Parameter Summary:

   Turbulence model used                            =  IEC Kaimal
   Turbulence characteristic                        =  A
   IEC turbulence type                              =  Normal Turbulence Model
   IEC standard                                     =  IEC 61400-1 Ed. 3: 2005
   Mean wind speed at hub height                    =   17.000 m/s
   Expected value of turbulence intensity at 15 m/s =   16.000%
   Characteristic value of standard deviation       =    2.936 m/s
   Turbulence scale                                 =   42.000 m
   u-component integral scale                       =  340.200 m
   Coherency scale                                  =  340.200 m
   Characteristic value of hub turbulence intensity =   17.271%
   Gradient Richardson number                       =    0.000

   Wind profile type                                =  Power law
   Power law exponent                               =    0.200
   Mean shear across rotor disk                     =    0.038 (m/s)/m
   Assumed rotor diameter                           =  266.000 m
   Surface roughness length                         =    0.030 m

   Nyquist frequency of turbulent wind field        =   10.000 Hz

   Number of time steps in the FFT                  =     3600
   Number of time steps output                      =     3600
   Number of points simulated                       =      625


Mean Flow Angles:

   Vertical   =   0.0 degrees
   Horizontal =   0.0 degrees

Mean Wind Speed Profile:

   Height    Wind Speed   Horizontal Angle  Vertical Angle  U-comp (X)   V-comp (Y)   W-comp (Z)
     (m)        (m/s)         (degrees)       (degrees)       (m/s)        (m/s)        (m/s)   
   ------    ----------   ----------------  --------------  ----------   ----------   ----------
    273.0       19.43            0.00            0.00         19.43         0.00         0.00
    261.9       19.27            0.00            0.00         19.27         0.00         0.00
    250.8       19.10            0.00            0.00         19.10         0.00         0.00
    239.8       18.93            0.00            0.00         18.93         0.00         0.00
    228.7       18.75            0.00            0.00         18.75         0.00         0.00
    217.6       18.57            0.00            0.00         18.57         0.00         0.00
    206.5       18.37            0.00            0.00         18.37         0.00         0.00
    195.4       18.17            0.00            0.00         18.17         0.00         0.00
    184.3       17.96            0.00            0.00         17.96         0.00         0.00
    173.2       17.74            0.00            0.00         17.74         0.00         0.00
    162.2       17.51            0.00            0.00         17.51         0.00         0.00
    151.1       17.26            0.00            0.00         17.26         0.00         0.00
    140.0       17.00            0.00            0.00         17.00         0.00         0.00
    128.9       16.72            0.00            0.00         16.72         0.00         0.00
    117.8       16.42            0.00            0.00         16.42         0.00         0.00
    106.8       16.10            0.00            0.00         16.10         0.00         0.00
     95.7       15.75            0.00            0.00         15.75         0.00         0.00
     84.6       15.37            0.00            0.00         15.37         0.00         0.00
     73.5       14.94            0.00            0.00         14.94         0.00         0.00
     62.4       14.46            0.00            0.00         14.46         0.00         0.00
     51.3       13.91            0.00            0.00         13.91         0.00         0.00
     40.2       13.25            0.00            0.00         13.25         0.00         0.00
     29.2       12.42            0.00            0.00         12.42         0.00         0.00
     18.1       11.29            0.00            0.00         11.29         0.00         0.00
      7.0        9.34            0.00            0.00          9.34         0.00         0.00


Harvested Random Seeds after Generation of the Random Numbers:

     31359375 K 1
            0 K 2


Hub-Height Simulated Turbulence Statistical Summary:

   Type of Wind        Min (m/s)   Mean (m/s)    Max (m/s)  Sigma (m/s)       TI (%)
   ----------------    ---------   ----------    ---------  -----------       ------
   Longitudinal (u)        10.92        17.00        24.58        2.466       14.505
   Lateral (v)             -7.76         0.00         7.96        2.243       13.195
   Vertical (w)            -4.46         0.00         4.56        1.420        8.352
   U component             10.92        17.00        24.58        2.466       14.505
   V component             -7.76         0.00         7.96        2.243       13.195
   W component             -4.46         0.00         4.56        1.420        8.352
   Horizontal (U&V)        11.30        17.15        24.67        2.426       14.141
   Total                   11.33        17.21        24.69        2.420       14.061

                       Min Reynolds     Mean Reynolds    Max Reynolds    Correlation
   Product             Stress (m/s)^2   Stress (m/s)^2   Stress (m/s)^2  Coefficient
   ----------------    --------------   --------------   --------------  -----------
   u'w'                    -16.594            -0.223            22.608        -0.064
   u'v'                    -38.135            -0.711            21.235        -0.129
   v'w'                    -19.236             0.005            15.312         0.002


   Friction Velocity (Ustar)  =      0.472 m/s
   Maximum Instantaneous TKE  =     41.836 (m/s)^2
   Maximum Instantaneous CTKE =     19.078 (m/s)^2


Grid Point Variance Summary:

   Y-coord -133.00 -121.92 -110.83  -99.75  -88.67  -77.58  -66.50  -55.42  -44.33  -33.25  -22.17  -11.08    0.00   11.08   22.17   33.25   44.33   55.42   66.50   77.58   88.67   99.75  110.83  121.92  133.00

   Height   Standard deviation at grid points for the u component:
   273.00    1.855   2.223   2.222   2.681   2.800   2.941   2.824   2.638   2.822   2.495   2.292   2.264   2.122   2.191   2.395   2.526   2.462   2.683   2.708   2.336   2.270   2.307   2.385   2.456   2.474
   261.92    1.799   2.047   2.383   2.700   2.717   2.791   2.702   2.742   2.695   2.465   2.367   2.242   2.291   2.298   2.523   2.711   2.845   2.613   2.931   2.401   2.286   2.558   2.737   2.579   2.747
   250.83    2.473   2.124   2.469   2.708   2.705   2.501   2.683   2.194   2.241   2.450   2.554   2.291   2.411   2.549   2.642   3.022   2.930   2.683   2.582   2.612   2.477   2.839   2.415   2.450   2.704
   239.75    2.898   2.393   2.227   2.639   2.429   2.360   2.415   2.514   2.396   2.585   2.659   2.229   2.451   2.976   2.621   2.608   2.919   3.111   2.809   2.857   2.787   2.611   2.419   2.470   2.714
   228.67    2.727   2.436   2.104   2.459   2.291   2.420   2.527   2.445   2.612   2.749   2.868   2.608   2.862   2.986   2.918   2.875   2.904   2.927   2.931   2.986   2.537   2.821   2.675   2.534   2.659
   217.58    2.524   2.593   2.517   2.415   2.481   2.552   2.700   2.506   2.448   2.439   2.585   2.719   3.192   3.095   3.307   2.693   2.768   2.812   2.667   2.510   2.361   2.669   2.403   2.554   2.748
   206.50    2.321   2.474   2.499   2.396   2.492   2.468   2.480   2.678   2.735   2.702   2.626   3.085   3.222   3.088   2.811   2.667   2.663   2.907   2.615   2.485   2.335   2.397   2.687   2.510   2.859
   195.42    2.509   2.462   2.468   2.566   2.688   2.460   2.146   2.485   2.502   2.800   2.885   3.197   3.019   2.988   3.066   2.918   2.497   2.640   2.800   2.426   2.441   2.097   2.330   2.438   2.577
   184.33    2.284   2.533   2.610   2.426   2.653   2.453   2.281   2.487   2.293   2.687   2.715   2.767   2.868   2.935   3.017   2.666   2.321   2.473   2.477   2.313   2.070   2.020   2.003   2.214   2.626
   173.25    2.765   2.787   2.522   2.461   2.541   2.452   2.616   2.825   2.697   2.564   2.712   2.419   2.624   2.666   2.556   2.545   2.454   2.323   2.160   2.305   1.775   1.903   2.053   2.265   2.311
   162.17    3.000   2.756   2.655   2.625   2.567   2.530   2.790   2.639   2.748   2.503   2.385   2.257   2.314   2.483   2.705   2.461   2.650   2.170   2.130   2.128   2.202   2.168   2.262   2.236   2.357
   151.08    3.043   2.895   2.838   2.556   2.699   2.887   2.842   2.945   2.500   2.384   2.169   2.069   2.464   2.352   2.635   2.491   2.425   2.153   2.127   2.651   2.467   2.311   2.389   2.311   2.196
   140.00    3.058   2.842   2.880   2.837   2.476   2.706   2.884   2.802   2.632   2.642   2.260   2.495   2.466   2.436   2.366   2.623   2.850   2.553   2.487   2.672   2.419   2.390   2.293   2.129   1.882
   128.92    2.991   3.033   3.239   2.938   2.484   2.755   2.813   2.783   2.984   2.899   2.664   2.501   2.329   2.336   2.102   2.458   2.597   2.843   2.661   2.717   2.812   2.595   2.610   2.579   2.383
   117.83    3.014   3.132   3.242   2.812   2.615   2.505   2.369   2.424   2.771   2.792   2.471   2.243   2.273   2.409   2.712   2.591   2.428   2.726   2.573   2.582   2.623   2.437   2.464   2.651   2.726
   106.75    3.328   3.108   2.897   2.898   3.061   2.858   2.547   2.437   2.601   2.792   2.601   2.111   2.319   2.554   2.865   2.910   2.778   3.244   2.920   2.978   2.565   1.996   2.652   2.792   3.047
    95.67    2.942   2.990   3.140   2.858   3.062   2.805   2.606   2.691   2.737   2.790   2.474   2.361   2.330   2.812   2.833   2.902   2.921   3.068   2.997   2.714   2.475   2.316   2.441   2.927   3.076
    84.58    3.335   3.003   2.515   2.758   2.965   2.858   2.922   2.759   2.488   2.507   2.539   2.288   2.372   2.959   3.678   3.415   3.024   2.953   2.795   2.600   2.313   2.402   2.476   2.696   2.970
    73.50    3.317   2.784   2.696   2.683   2.573   2.782   2.937   2.951   2.638   2.760   2.841   2.739   2.877   3.260   3.496   3.326   3.361   3.132   3.176   3.126   2.838   2.507   2.731   2.645   2.826
    62.42    3.310   3.026   2.489   2.788   2.883   2.848   2.944   2.540   2.778   2.818   3.056   3.029   3.087   3.579   3.586   3.401   3.179   3.162   2.905   2.752   2.899   2.512   2.640   2.315   2.563
    51.33    3.213   2.864   2.482   2.820   2.879   2.668   2.694   2.545   2.362   2.744   2.708   2.800   3.288   3.555   3.683   3.372   3.380   2.988   2.769   2.992   2.859   2.789   2.883   2.566   2.413
    40.25    3.215   2.702   2.596   2.414   2.427   2.493   2.556   2.450   2.757   2.784   2.696   2.857   3.287   3.192   3.588   3.151   3.131   3.061   2.938   2.863   2.886   2.580   2.750   2.663   2.573
    29.17    2.780   2.771   2.781   2.497   2.645   2.502   2.497   2.478   2.350   2.732   3.179   2.813   3.055   3.556   3.526   3.400   3.538   3.599   3.092   3.226   2.975   2.892   2.694   2.725   2.376
    18.08    2.720   3.066   2.775   2.483   2.389   2.243   2.184   2.368   2.380   2.610   2.817   2.974   3.030   3.289   3.513   3.365   3.470   3.182   3.450   3.199   3.094   2.873   2.886   2.991   2.760
     7.00    2.638   2.573   2.709   2.607   2.464   1.920   2.158   2.391   2.571   2.803   2.697   2.750   2.885   2.901   3.056   3.203   3.076   3.260   3.048   3.106   3.096   2.537   2.908   2.548   2.881

   Height   Standard deviation at grid points for the v component:
   273.00    2.243   2.243   2.243   2.243   2.243   2.243   2.243   2.243   2.243   2.243   2.243   2.243   2.243   2.243   2.243   2.243   2.243   2.243   2.243   2.243   2.243   2.243   2.243   2.243   2.243
   261.92    2.243   2.243   2.243   2.243   2.243   2.243   2.243   2.243   2.243   2.243   2.243   2.243   2.243   2.243   2.243   2.243   2.243   2.243   2.243   2.243   2.243   2.243   2.243   2.243   2.243
   250.83    2.243   2.243   2.243   2.243   2.243   2.243   2.243   2.243   2.243   2.243   2.243   2.243   2.243   2.243   2.243   2.243   2.243   2.243   2.243   2.243   2.243   2.243   2.243   2.243   2.243
   239.75    2.243   2.243   2.243   2.243   2.243   2.243   2.243   2.243   2.243   2.243   2.243   2.243   2.243   2.243   2.243   2.243   2.243   2.243   2.243   2.243   2.243   2.243   2.243   2.243   2.243
   228.67    2.243   2.243   2.243   2.243   2.243   2.243   2.243   2.243   2.243   2.243   2.243   2.243   2.243   2.243   2.243   2.243   2.243   2.243   2.243   2.243   2.243   2.243   2.243   2.243   2.243
   217.58    2.243   2.243   2.243   2.243   2.243   2.243   2.243   2.243   2.243   2.243   2.243   2.243   2.243   2.243   2.243   2.243   2.243   2.243   2.243   2.243   2.243   2.243   2.243   2.243   2.243
   206.50    2.243   2.243   2.243   2.243   2.243   2.243   2.243   2.243   2.243   2.243   2.243   2.243   2.243   2.243   2.243   2.243   2.243   2.243   2.243   2.243   2.243   2.243   2.243   2.243   2.243
   195.42    2.243   2.243   2.243   2.243   2.243   2.243   2.243   2.243   2.243   2.243   2.243   2.243   2.243   2.243   2.243   2.243   2.243   2.243   2.243   2.243   2.243   2.243   2.243   2.243   2.243
   184.33    2.243   2.243   2.243   2.243   2.243   2.243   2.243   2.243   2.243   2.243   2.243   2.243   2.243   2.243   2.243   2.243   2.243   2.243   2.243   2.243   2.243   2.243   2.243   2.243   2.243
   173.25    2.243   2.243   2.243   2.243   2.243   2.243   2.243   2.243   2.243   2.243   2.243   2.243   2.243   2.243   2.243   2.243   2.243   2.243   2.243   2.243   2.243   2.243   2.243   2.243   2.243
   162.17    2.243   2.243   2.243   2.243   2.243   2.243   2.243   2.243   2.243   2.243   2.243   2.243   2.243   2.243   2.243   2.243   2.243   2.243   2.243   2.243   2.243   2.243   2.243   2.243   2.243
   151.08    2.243   2.243   2.243   2.243   2.243   2.243   2.243   2.243   2.243   2.243   2.243   2.243   2.243   2.243   2.243   2.243   2.243   2.243   2.243   2.243   2.243   2.243   2.243   2.243   2.243
   140.00    2.243   2.243   2.243   2.243   2.243   2.243   2.243   2.243   2.243   2.243   2.243   2.243   2.243   2.243   2.243   2.243   2.243   2.243   2.243   2.243   2.243   2.243   2.243   2.243   2.243
   128.92    2.243   2.243   2.243   2.243   2.243   2.243   2.243   2.243   2.243   2.243   2.243   2.243   2.243   2.243   2.243   2.243   2.243   2.243   2.243   2.243   2.243   2.243   2.243   2.243   2.243
   117.83    2.243   2.243   2.243   2.243   2.243   2.243   2.243   2.243   2.243   2.243   2.243   2.243   2.243   2.243   2.243   2.243   2.243   2.243   2.243   2.243   2.243   2.243   2.243   2.243   2.243
   106.75    2.243   2.243   2.243   2.243   2.243   2.243   2.243   2.243   2.243   2.243   2.243   2.243   2.243   2.243   2.243   2.243   2.243   2.243   2.243   2.243   2.243   2.243   2.243   2.243   2.243
    95.67    2.243   2.243   2.243   2.243   2.243   2.243   2.243   2.243   2.243   2.243   2.243   2.243   2.243   2.243   2.243   2.243   2.243   2.243   2.243   2.243   2.243   2.243   2.243   2.243   2.243
    84.58    2.243   2.243   2.243   2.243   2.243   2.243   2.243   2.243   2.243   2.243   2.243   2.243   2.243   2.243   2.243   2.243   2.243   2.243   2.243   2.243   2.243   2.243   2.243   2.243   2.243
    73.50    2.243   2.243   2.243   2.243   2.243   2.243   2.243   2.243   2.243   2.243   2.243   2.243   2.243   2.243   2.243   2.243   2.243   2.243   2.243   2.243   2.243   2.243   2.243   2.243   2.243
    62.42    2.243   2.243   2.243   2.243   2.243   2.243   2.243   2.243   2.243   2.243   2.243   2.243   2.243   2.243   2.243   2.243   2.243   2.243   2.243   2.243   2.243   2.243   2.243   2.243   2.243
    51.33    2.243   2.243   2.243   2.243   2.243   2.243   2.243   2.243   2.243   2.243   2.243   2.243   2.243   2.243   2.243   2.243   2.243   2.243   2.243   2.243   2.243   2.243   2.243   2.243   2.243
    40.25    2.243   2.243   2.243   2.243   2.243   2.243   2.243   2.243   2.243   2.243   2.243   2.243   2.243   2.243   2.243   2.243   2.243   2.243   2.243   2.243   2.243   2.243   2.243   2.243   2.243
    29.17    2.243   2.243   2.243   2.243   2.243   2.243   2.243   2.243   2.243   2.243   2.243   2.243   2.243   2.243   2.243   2.243   2.243   2.243   2.243   2.243   2.243   2.243   2.243   2.243   2.243
    18.08    2.243   2.243   2.243   2.243   2.243   2.243   2.243   2.243   2.243   2.243   2.243   2.243   2.243   2.243   2.243   2.243   2.243   2.243   2.243   2.243   2.243   2.243   2.243   2.243   2.243
     7.00    2.243   2.243   2.243   2.243   2.243   2.243   2.243   2.243   2.243   2.243   2.243   2.243   2.243   2.243   2.243   2.243   2.243   2.243   2.243   2.243   2.243   2.243   2.243   2.243   2.243

   Height   Standard deviation at grid points for the w component:
   273.00    1.420   1.420   1.420   1.420   1.420   1.420   1.420   1.420   1.420   1.420   1.420   1.420   1.420   1.420   1.420   1.420   1.420   1.420   1.420   1.420   1.420   1.420   1.420   1.420   1.420
   261.92    1.420   1.420   1.420   1.420   1.420   1.420   1.420   1.420   1.420   1.420   1.420   1.420   1.420   1.420   1.420   1.420   1.420   1.420   1.420   1.420   1.420   1.420   1.420   1.420   1.420
   250.83    1.420   1.420   1.420   1.420   1.420   1.420   1.420   1.420   1.420   1.420   1.420   1.420   1.420   1.420   1.420   1.420   1.420   1.420   1.420   1.420   1.420   1.420   1.420   1.420   1.420
   239.75    1.420   1.420   1.420   1.420   1.420   1.420   1.420   1.420   1.420   1.420   1.420   1.420   1.420   1.420   1.420   1.420   1.420   1.420   1.420   1.420   1.420   1.420   1.420   1.420   1.420
   228.67    1.420   1.420   1.420   1.420   1.420   1.420   1.420   1.420   1.420   1.420   1.420   1.420   1.420   1.420   1.420   1.420   1.420   1.420   1.420   1.420   1.420   1.420   1.420   1.420   1.420
   217.58    1.420   1.420   1.420   1.420   1.420   1.420   1.420   1.420   1.420   1.420   1.420   1.420   1.420   1.420   1.420   1.420   1.420   1.420   1.420   1.420   1.420   1.420   1.420   1.420   1.420
   206.50    1.420   1.420   1.420   1.420   1.420   1.420   1.420   1.420   1.420   1.420   1.420   1.420   1.420   1.420   1.420   1.420   1.420   1.420   1.420   1.420   1.420   1.420   1.420   1.420   1.420
   195.42    1.420   1.420   1.420   1.420   1.420   1.420   1.420   1.420   1.420   1.420   1.420   1.420   1.420   1.420   1.420   1.420   1.420   1.420   1.420   1.420   1.420   1.420   1.420   1.420   1.420
   184.33    1.420   1.420   1.420   1.420   1.420   1.420   1.420   1.420   1.420   1.420   1.420   1.420   1.420   1.420   1.420   1.420   1.420   1.420   1.420   1.420   1.420   1.420   1.420   1.420   1.420
   173.25    1.420   1.420   1.420   1.420   1.420   1.420   1.420   1.420   1.420   1.420   1.420   1.420   1.420   1.420   1.420   1.420   1.420   1.420   1.420   1.420   1.420   1.420   1.420   1.420   1.420
   162.17    1.420   1.420   1.420   1.420   1.420   1.420   1.420   1.420   1.420   1.420   1.420   1.420   1.420   1.420   1.420   1.420   1.420   1.420   1.420   1.420   1.420   1.420   1.420   1.420   1.420
   151.08    1.420   1.420   1.420   1.420   1.420   1.420   1.420   1.420   1.420   1.420   1.420   1.420   1.420   1.420   1.420   1.420   1.420   1.420   1.420   1.420   1.420   1.420   1.420   1.420   1.420
   140.00    1.420   1.420   1.420   1.420   1.420   1.420   1.420   1.420   1.420   1.420   1.420   1.420   1.420   1.420   1.420   1.420   1.420   1.420   1.420   1.420   1.420   1.420   1.420   1.420   1.420
   128.92    1.420   1.420   1.420   1.420   1.420   1.420   1.420   1.420   1.420   1.420   1.420   1.420   1.420   1.420   1.420   1.420   1.420   1.420   1.420   1.420   1.420   1.420   1.420   1.420   1.420
   117.83    1.420   1.420   1.420   1.420   1.420   1.420   1.420   1.420   1.420   1.420   1.420   1.420   1.420   1.420   1.420   1.420   1.420   1.420   1.420   1.420   1.420   1.420   1.420   1.420   1.420
   106.75    1.420   1.420   1.420   1.420   1.420   1.420   1.420   1.420   1.420   1.420   1.420   1.420   1.420   1.420   1.420   1.420   1.420   1.420   1.420   1.420   1.420   1.420   1.420   1.420   1.420
    95.67    1.420   1.420   1.420   1.420   1.420   1.420   1.420   1.420   1.420   1.420   1.420   1.420   1.420   1.420   1.420   1.420   1.420   1.420   1.420   1.420   1.420   1.420   1.420   1.420   1.420
    84.58    1.420   1.420   1.420   1.420   1.420   1.420   1.420   1.420   1.420   1.420   1.420   1.420   1.420   1.420   1.420   1.420   1.420   1.420   1.420   1.420   1.420   1.420   1.420   1.420   1.420
    73.50    1.420   1.420   1.420   1.420   1.420   1.420   1.420   1.420   1.420   1.420   1.420   1.420   1.420   1.420   1.420   1.420   1.420   1.420   1.420   1.420   1.420   1.420   1.420   1.420   1.420
    62.42    1.420   1.420   1.420   1.420   1.420   1.420   1.420   1.420   1.420   1.420   1.420   1.420   1.420   1.420   1.420   1.420   1.420   1.420   1.420   1.420   1.420   1.420   1.420   1.420   1.420
    51.33    1.420   1.420   1.420   1.420   1.420   1.420   1.420   1.420   1.420   1.420   1.420   1.420   1.420   1.420   1.420   1.420   1.420   1.420   1.420   1.420   1.420   1.420   1.420   1.420   1.420
    40.25    1.420   1.420   1.420   1.420   1.420   1.420   1.420   1.420   1.420   1.420   1.420   1.420   1.420   1.420   1.420   1.420   1.420   1.420   1.420   1.420   1.420   1.420   1.420   1.420   1.420
    29.17    1.420   1.420   1.420   1.420   1.420   1.420   1.420   1.420   1.420   1.420   1.420   1.420   1.420   1.420   1.420   1.420   1.420   1.420   1.420   1.420   1.420   1.420   1.420   1.420   1.420
    18.08    1.420   1.420   1.420   1.420   1.420   1.420   1.420   1.420   1.420   1.420   1.420   1.420   1.420   1.420   1.420   1.420   1.420   1.420   1.420   1.420   1.420   1.420   1.420   1.420   1.420
     7.00    1.420   1.420   1.420   1.420   1.420   1.420   1.420   1.420   1.420   1.420   1.420   1.420   1.420   1.420   1.420   1.420   1.420   1.420   1.420   1.420   1.420   1.420   1.420   1.420   1.420

   Mean standard deviation across all grid points:
      u component:    2.677 m/s
      v component:    2.243 m/s
      w component:    1.420 m/s


U-component (X) statistics from the interpolated hub point:

   Mean =  17.0000 m/s
   TI   =  14.5047 %


Processing complete.  45.429 CPU seconds used.
