
This summary file was generated by TurbSim (v2.00.08a-bjj, 18-Jul-2017) on 24-Jul-2020 at 16:35:53.


Runtime Options:

        12  Random seed #1
    RANLUX  Type of random number generator
         F  Output binary HH turbulence parameters?
         F  Output formatted turbulence parameters?
         F  Output AeroDyn HH files?
         T  Output AeroDyn FF files?
         F  Output BLADED FF files?
         F  Output tower data?
         F  Output formatted FF files?
         F  Output coherent turbulence time step file?
         T  Clockwise rotation when looking downwind?
 0 -  NONE  IEC turbulence models scaled to exact specified standard deviation


Turbine/Model Specifications:

        25  Vertical grid-point matrix dimension
        25  Horizontal grid-point matrix dimension
     0.050  Time step [seconds]
   180.000  Analysis time [seconds]
   180.000  Usable output time [seconds]
   140.000  Hub height [m]
   266.000  Grid height [m]
   266.000  Grid width [m]
     0.000  Vertical flow angle [degrees]
     0.000  Horizontal flow angle [degrees]


Meteorological Boundary Conditions:

    IECKAI  IEC Kaimal spectral model
         1  IEC standard: IEC 61400-1 Ed. 3: 2005
         A  IEC turbulence characteristic
       NTM  IEC Normal Turbulence Model
       N/A  IEC Extreme Turbulence Model (ETM) "c" parameter [m/s]
       PL   Wind profile type
   140.000  Reference height [m]
    13.000  Reference wind speed [m/s]
       N/A  Jet height [m]
     0.200  Power law exponent
     0.030  Surface roughness length [m]


Non-IEC Meteorological Boundary Conditions:

       N/A  Site latitude [degrees]
       N/A  Gradient Richardson number
       N/A  Friction or shear velocity [m/s]
       N/A  Mixing layer depth [m]
       N/A  Mean hub u'w' Reynolds stress
       N/A  Mean hub u'v' Reynolds stress
       N/A  Mean hub v'w' Reynolds stress


Spatial Coherence Models:

   GENERAL  u-component coherence model
   GENERAL  v-component coherence model
   GENERAL  w-component coherence model
(   12.000, 0.353E-03)  u-component coherence parameters
(*********,  0.00    )  v-component coherence parameters
(*********,  0.00    )  w-component coherence parameters
     0.000  Coherence exponent


You have requested that the following file(s) be generated:

   /home/mertzb/Documents/Analysis/BAR10/temp/Testing/Testing_powercurve_NTM_U13.000000_Seed12.0.bts (AeroDyn/TurbSim full-field wind file)


Turbulence Simulation Scaling Parameter Summary:

   Turbulence model used                            =  IEC Kaimal
   Turbulence characteristic                        =  A
   IEC turbulence type                              =  Normal Turbulence Model
   IEC standard                                     =  IEC 61400-1 Ed. 3: 2005
   Mean wind speed at hub height                    =   13.000 m/s
   Expected value of turbulence intensity at 15 m/s =   16.000%
   Characteristic value of standard deviation       =    2.456 m/s
   Turbulence scale                                 =   42.000 m
   u-component integral scale                       =  340.200 m
   Coherency scale                                  =  340.200 m
   Characteristic value of hub turbulence intensity =   18.892%
   Gradient Richardson number                       =    0.000

   Wind profile type                                =  Power law
   Power law exponent                               =    0.200
   Mean shear across rotor disk                     =    0.029 (m/s)/m
   Assumed rotor diameter                           =  266.000 m
   Surface roughness length                         =    0.030 m

   Nyquist frequency of turbulent wind field        =   10.000 Hz

   Number of time steps in the FFT                  =     3600
   Number of time steps output                      =     3600
   Number of points simulated                       =      625


Mean Flow Angles:

   Vertical   =   0.0 degrees
   Horizontal =   0.0 degrees

Mean Wind Speed Profile:

   Height    Wind Speed   Horizontal Angle  Vertical Angle  U-comp (X)   V-comp (Y)   W-comp (Z)
     (m)        (m/s)         (degrees)       (degrees)       (m/s)        (m/s)        (m/s)   
   ------    ----------   ----------------  --------------  ----------   ----------   ----------
    273.0       14.86            0.00            0.00         14.86         0.00         0.00
    261.9       14.74            0.00            0.00         14.74         0.00         0.00
    250.8       14.61            0.00            0.00         14.61         0.00         0.00
    239.8       14.48            0.00            0.00         14.48         0.00         0.00
    228.7       14.34            0.00            0.00         14.34         0.00         0.00
    217.6       14.20            0.00            0.00         14.20         0.00         0.00
    206.5       14.05            0.00            0.00         14.05         0.00         0.00
    195.4       13.90            0.00            0.00         13.90         0.00         0.00
    184.3       13.74            0.00            0.00         13.74         0.00         0.00
    173.2       13.57            0.00            0.00         13.57         0.00         0.00
    162.2       13.39            0.00            0.00         13.39         0.00         0.00
    151.1       13.20            0.00            0.00         13.20         0.00         0.00
    140.0       13.00            0.00            0.00         13.00         0.00         0.00
    128.9       12.79            0.00            0.00         12.79         0.00         0.00
    117.8       12.56            0.00            0.00         12.56         0.00         0.00
    106.8       12.31            0.00            0.00         12.31         0.00         0.00
     95.7       12.05            0.00            0.00         12.05         0.00         0.00
     84.6       11.75            0.00            0.00         11.75         0.00         0.00
     73.5       11.43            0.00            0.00         11.43         0.00         0.00
     62.4       11.06            0.00            0.00         11.06         0.00         0.00
     51.3       10.64            0.00            0.00         10.64         0.00         0.00
     40.2       10.13            0.00            0.00         10.13         0.00         0.00
     29.2        9.50            0.00            0.00          9.50         0.00         0.00
     18.1        8.63            0.00            0.00          8.63         0.00         0.00
      7.0        7.14            0.00            0.00          7.14         0.00         0.00


Harvested Random Seeds after Generation of the Random Numbers:

     31359375 K 1
            0 K 2


Hub-Height Simulated Turbulence Statistical Summary:

   Type of Wind        Min (m/s)   Mean (m/s)    Max (m/s)  Sigma (m/s)       TI (%)
   ----------------    ---------   ----------    ---------  -----------       ------
   Longitudinal (u)         7.87        13.00        19.51        1.985       15.272
   Lateral (v)             -6.30         0.00         6.64        1.859       14.302
   Vertical (w)            -3.72        -0.00         3.73        1.189        9.147
   U component              7.87        13.00        19.51        1.985       15.272
   V component             -6.30         0.00         6.64        1.859       14.302
   W component             -3.72        -0.00         3.73        1.189        9.147
   Horizontal (U&V)         8.61        13.14        19.58        1.942       14.781
   Total                    8.66        13.19        19.60        1.938       14.693

                       Min Reynolds     Mean Reynolds    Max Reynolds    Correlation
   Product             Stress (m/s)^2   Stress (m/s)^2   Stress (m/s)^2  Coefficient
   ----------------    --------------   --------------   --------------  -----------
   u'w'                    -11.316            -0.049            16.502        -0.021
   u'v'                    -26.642            -0.574            15.168        -0.156
   v'w'                    -13.081            -0.019            10.261        -0.009


   Friction Velocity (Ustar)  =      0.220 m/s
   Maximum Instantaneous TKE  =     29.258 (m/s)^2
   Maximum Instantaneous CTKE =     13.334 (m/s)^2


Grid Point Variance Summary:

   Y-coord -133.00 -121.92 -110.83  -99.75  -88.67  -77.58  -66.50  -55.42  -44.33  -33.25  -22.17  -11.08    0.00   11.08   22.17   33.25   44.33   55.42   66.50   77.58   88.67   99.75  110.83  121.92  133.00

   Height   Standard deviation at grid points for the u component:
   273.00    1.479   1.795   1.780   2.232   2.294   2.440   2.374   2.189   2.343   1.996   1.847   1.784   1.692   1.748   1.907   2.117   2.080   2.259   2.297   1.892   1.850   1.875   1.953   2.050   2.031
   261.92    1.391   1.657   1.945   2.186   2.254   2.315   2.223   2.288   2.258   2.013   1.918   1.762   1.812   1.795   2.071   2.280   2.408   2.191   2.444   1.959   1.828   2.095   2.300   2.139   2.266
   250.83    1.955   1.649   1.973   2.175   2.209   1.943   2.140   1.741   1.819   1.993   2.098   1.919   1.980   2.062   2.150   2.535   2.453   2.256   2.108   2.144   2.043   2.359   2.007   1.966   2.203
   239.75    2.307   1.859   1.738   2.098   1.904   1.816   1.888   2.038   1.919   2.068   2.150   1.800   2.031   2.528   2.206   2.146   2.449   2.659   2.329   2.420   2.327   2.144   1.931   1.967   2.181
   228.67    2.145   1.874   1.600   1.935   1.765   1.894   1.978   1.913   2.114   2.225   2.370   2.136   2.418   2.528   2.487   2.424   2.486   2.479   2.444   2.500   2.064   2.295   2.235   2.039   2.093
   217.58    1.973   2.090   2.004   1.900   2.001   2.036   2.158   1.988   1.960   1.931   2.082   2.217   2.699   2.638   2.836   2.281   2.344   2.306   2.223   2.021   1.938   2.153   1.919   2.033   2.204
   206.50    1.824   2.006   2.000   1.887   2.009   1.933   1.929   2.118   2.180   2.160   2.101   2.573   2.729   2.635   2.343   2.241   2.216   2.410   2.093   2.017   1.896   1.937   2.173   2.014   2.320
   195.42    1.978   1.957   1.951   2.012   2.180   2.011   1.661   1.947   1.940   2.246   2.393   2.688   2.535   2.504   2.574   2.433   2.046   2.190   2.329   1.983   2.010   1.671   1.817   1.923   2.086
   184.33    1.758   1.988   2.044   1.852   2.125   1.985   1.826   1.953   1.786   2.173   2.210   2.294   2.400   2.519   2.564   2.294   1.872   1.994   1.973   1.876   1.696   1.625   1.578   1.750   2.178
   173.25    2.170   2.207   1.972   1.921   2.009   1.953   2.089   2.302   2.181   2.054   2.200   1.927   2.187   2.233   2.110   2.131   2.003   1.872   1.700   1.888   1.397   1.516   1.677   1.833   1.896
   162.17    2.392   2.160   2.098   2.064   1.999   1.946   2.213   2.120   2.239   1.991   1.920   1.833   1.915   2.087   2.289   2.055   2.205   1.727   1.674   1.668   1.820   1.827   1.903   1.873   1.888
   151.08    2.435   2.269   2.261   2.007   2.106   2.281   2.253   2.392   1.988   1.836   1.685   1.629   2.082   1.980   2.284   2.069   2.044   1.731   1.655   2.162   2.048   1.873   1.973   1.865   1.754
   140.00    2.476   2.233   2.257   2.227   1.939   2.131   2.302   2.205   2.088   2.077   1.676   1.948   1.985   2.058   1.978   2.164   2.406   2.060   2.043   2.160   1.999   1.911   1.800   1.714   1.460
   128.92    2.364   2.400   2.586   2.318   1.913   2.163   2.250   2.206   2.363   2.262   2.029   1.968   1.863   1.927   1.625   1.953   2.091   2.369   2.183   2.278   2.337   2.119   2.155   2.092   1.880
   117.83    2.385   2.472   2.575   2.223   2.056   1.981   1.881   1.861   2.152   2.167   1.889   1.769   1.815   1.889   2.174   2.038   1.916   2.232   2.053   2.089   2.188   1.980   1.982   2.150   2.184
   106.75    2.645   2.453   2.249   2.284   2.464   2.282   1.987   1.864   2.000   2.176   2.012   1.559   1.803   1.954   2.264   2.340   2.244   2.678   2.327   2.424   2.101   1.579   2.099   2.273   2.490
    95.67    2.314   2.333   2.495   2.262   2.444   2.220   2.012   2.068   2.106   2.194   1.928   1.787   1.776   2.182   2.168   2.292   2.373   2.485   2.463   2.152   1.965   1.804   1.924   2.369   2.533
    84.58    2.660   2.380   1.935   2.168   2.366   2.242   2.259   2.121   1.883   1.911   1.940   1.701   1.769   2.287   2.933   2.693   2.379   2.364   2.238   1.993   1.767   1.882   1.923   2.104   2.427
    73.50    2.633   2.177   2.112   2.077   1.990   2.212   2.312   2.293   2.034   2.133   2.189   2.075   2.197   2.516   2.752   2.611   2.687   2.477   2.522   2.448   2.209   1.914   2.166   2.091   2.296
    62.42    2.680   2.427   1.968   2.207   2.280   2.267   2.328   1.940   2.158   2.201   2.422   2.375   2.423   2.871   2.852   2.674   2.462   2.453   2.215   2.117   2.221   1.927   2.027   1.871   2.116
    51.33    2.617   2.302   1.984   2.256   2.290   2.097   2.147   1.969   1.806   2.139   2.142   2.240   2.633   2.866   2.960   2.657   2.640   2.286   2.127   2.297   2.203   2.159   2.285   2.077   1.964
    40.25    2.643   2.194   2.086   1.894   1.900   1.930   2.007   1.900   2.198   2.230   2.172   2.298   2.660   2.553   2.883   2.473   2.442   2.343   2.231   2.168   2.236   1.972   2.182   2.170   2.153
    29.17    2.258   2.266   2.292   2.006   2.083   1.975   1.989   1.971   1.833   2.213   2.631   2.247   2.467   2.898   2.863   2.712   2.826   2.840   2.369   2.480   2.272   2.226   2.065   2.106   1.826
    18.08    2.220   2.551   2.287   1.975   1.853   1.770   1.726   1.865   1.844   2.081   2.316   2.450   2.492   2.685   2.849   2.706   2.783   2.503   2.751   2.486   2.386   2.222   2.261   2.350   2.174
     7.00    2.149   2.102   2.288   2.127   1.938   1.485   1.676   1.918   2.048   2.239   2.176   2.275   2.381   2.313   2.455   2.584   2.481   2.640   2.421   2.430   2.412   1.908   2.234   1.968   2.310

   Height   Standard deviation at grid points for the v component:
   273.00    1.859   1.859   1.859   1.859   1.859   1.859   1.859   1.859   1.859   1.859   1.859   1.859   1.859   1.859   1.859   1.859   1.859   1.859   1.859   1.859   1.859   1.859   1.859   1.859   1.859
   261.92    1.859   1.859   1.859   1.859   1.859   1.859   1.859   1.859   1.859   1.859   1.859   1.859   1.859   1.859   1.859   1.859   1.859   1.859   1.859   1.859   1.859   1.859   1.859   1.859   1.859
   250.83    1.859   1.859   1.859   1.859   1.859   1.859   1.859   1.859   1.859   1.859   1.859   1.859   1.859   1.859   1.859   1.859   1.859   1.859   1.859   1.859   1.859   1.859   1.859   1.859   1.859
   239.75    1.859   1.859   1.859   1.859   1.859   1.859   1.859   1.859   1.859   1.859   1.859   1.859   1.859   1.859   1.859   1.859   1.859   1.859   1.859   1.859   1.859   1.859   1.859   1.859   1.859
   228.67    1.859   1.859   1.859   1.859   1.859   1.859   1.859   1.859   1.859   1.859   1.859   1.859   1.859   1.859   1.859   1.859   1.859   1.859   1.859   1.859   1.859   1.859   1.859   1.859   1.859
   217.58    1.859   1.859   1.859   1.859   1.859   1.859   1.859   1.859   1.859   1.859   1.859   1.859   1.859   1.859   1.859   1.859   1.859   1.859   1.859   1.859   1.859   1.859   1.859   1.859   1.859
   206.50    1.859   1.859   1.859   1.859   1.859   1.859   1.859   1.859   1.859   1.859   1.859   1.859   1.859   1.859   1.859   1.859   1.859   1.859   1.859   1.859   1.859   1.859   1.859   1.859   1.859
   195.42    1.859   1.859   1.859   1.859   1.859   1.859   1.859   1.859   1.859   1.859   1.859   1.859   1.859   1.859   1.859   1.859   1.859   1.859   1.859   1.859   1.859   1.859   1.859   1.859   1.859
   184.33    1.859   1.859   1.859   1.859   1.859   1.859   1.859   1.859   1.859   1.859   1.859   1.859   1.859   1.859   1.859   1.859   1.859   1.859   1.859   1.859   1.859   1.859   1.859   1.859   1.859
   173.25    1.859   1.859   1.859   1.859   1.859   1.859   1.859   1.859   1.859   1.859   1.859   1.859   1.859   1.859   1.859   1.859   1.859   1.859   1.859   1.859   1.859   1.859   1.859   1.859   1.859
   162.17    1.859   1.859   1.859   1.859   1.859   1.859   1.859   1.859   1.859   1.859   1.859   1.859   1.859   1.859   1.859   1.859   1.859   1.859   1.859   1.859   1.859   1.859   1.859   1.859   1.859
   151.08    1.859   1.859   1.859   1.859   1.859   1.859   1.859   1.859   1.859   1.859   1.859   1.859   1.859   1.859   1.859   1.859   1.859   1.859   1.859   1.859   1.859   1.859   1.859   1.859   1.859
   140.00    1.859   1.859   1.859   1.859   1.859   1.859   1.859   1.859   1.859   1.859   1.859   1.859   1.859   1.859   1.859   1.859   1.859   1.859   1.859   1.859   1.859   1.859   1.859   1.859   1.859
   128.92    1.859   1.859   1.859   1.859   1.859   1.859   1.859   1.859   1.859   1.859   1.859   1.859   1.859   1.859   1.859   1.859   1.859   1.859   1.859   1.859   1.859   1.859   1.859   1.859   1.859
   117.83    1.859   1.859   1.859   1.859   1.859   1.859   1.859   1.859   1.859   1.859   1.859   1.859   1.859   1.859   1.859   1.859   1.859   1.859   1.859   1.859   1.859   1.859   1.859   1.859   1.859
   106.75    1.859   1.859   1.859   1.859   1.859   1.859   1.859   1.859   1.859   1.859   1.859   1.859   1.859   1.859   1.859   1.859   1.859   1.859   1.859   1.859   1.859   1.859   1.859   1.859   1.859
    95.67    1.859   1.859   1.859   1.859   1.859   1.859   1.859   1.859   1.859   1.859   1.859   1.859   1.859   1.859   1.859   1.859   1.859   1.859   1.859   1.859   1.859   1.859   1.859   1.859   1.859
    84.58    1.859   1.859   1.859   1.859   1.859   1.859   1.859   1.859   1.859   1.859   1.859   1.859   1.859   1.859   1.859   1.859   1.859   1.859   1.859   1.859   1.859   1.859   1.859   1.859   1.859
    73.50    1.859   1.859   1.859   1.859   1.859   1.859   1.859   1.859   1.859   1.859   1.859   1.859   1.859   1.859   1.859   1.859   1.859   1.859   1.859   1.859   1.859   1.859   1.859   1.859   1.859
    62.42    1.859   1.859   1.859   1.859   1.859   1.859   1.859   1.859   1.859   1.859   1.859   1.859   1.859   1.859   1.859   1.859   1.859   1.859   1.859   1.859   1.859   1.859   1.859   1.859   1.859
    51.33    1.859   1.859   1.859   1.859   1.859   1.859   1.859   1.859   1.859   1.859   1.859   1.859   1.859   1.859   1.859   1.859   1.859   1.859   1.859   1.859   1.859   1.859   1.859   1.859   1.859
    40.25    1.859   1.859   1.859   1.859   1.859   1.859   1.859   1.859   1.859   1.859   1.859   1.859   1.859   1.859   1.859   1.859   1.859   1.859   1.859   1.859   1.859   1.859   1.859   1.859   1.859
    29.17    1.859   1.859   1.859   1.859   1.859   1.859   1.859   1.859   1.859   1.859   1.859   1.859   1.859   1.859   1.859   1.859   1.859   1.859   1.859   1.859   1.859   1.859   1.859   1.859   1.859
    18.08    1.859   1.859   1.859   1.859   1.859   1.859   1.859   1.859   1.859   1.859   1.859   1.859   1.859   1.859   1.859   1.859   1.859   1.859   1.859   1.859   1.859   1.859   1.859   1.859   1.859
     7.00    1.859   1.859   1.859   1.859   1.859   1.859   1.859   1.859   1.859   1.859   1.859   1.859   1.859   1.859   1.859   1.859   1.859   1.859   1.859   1.859   1.859   1.859   1.859   1.859   1.859

   Height   Standard deviation at grid points for the w component:
   273.00    1.189   1.189   1.189   1.189   1.189   1.189   1.189   1.189   1.189   1.189   1.189   1.189   1.189   1.189   1.189   1.189   1.189   1.189   1.189   1.189   1.189   1.189   1.189   1.189   1.189
   261.92    1.189   1.189   1.189   1.189   1.189   1.189   1.189   1.189   1.189   1.189   1.189   1.189   1.189   1.189   1.189   1.189   1.189   1.189   1.189   1.189   1.189   1.189   1.189   1.189   1.189
   250.83    1.189   1.189   1.189   1.189   1.189   1.189   1.189   1.189   1.189   1.189   1.189   1.189   1.189   1.189   1.189   1.189   1.189   1.189   1.189   1.189   1.189   1.189   1.189   1.189   1.189
   239.75    1.189   1.189   1.189   1.189   1.189   1.189   1.189   1.189   1.189   1.189   1.189   1.189   1.189   1.189   1.189   1.189   1.189   1.189   1.189   1.189   1.189   1.189   1.189   1.189   1.189
   228.67    1.189   1.189   1.189   1.189   1.189   1.189   1.189   1.189   1.189   1.189   1.189   1.189   1.189   1.189   1.189   1.189   1.189   1.189   1.189   1.189   1.189   1.189   1.189   1.189   1.189
   217.58    1.189   1.189   1.189   1.189   1.189   1.189   1.189   1.189   1.189   1.189   1.189   1.189   1.189   1.189   1.189   1.189   1.189   1.189   1.189   1.189   1.189   1.189   1.189   1.189   1.189
   206.50    1.189   1.189   1.189   1.189   1.189   1.189   1.189   1.189   1.189   1.189   1.189   1.189   1.189   1.189   1.189   1.189   1.189   1.189   1.189   1.189   1.189   1.189   1.189   1.189   1.189
   195.42    1.189   1.189   1.189   1.189   1.189   1.189   1.189   1.189   1.189   1.189   1.189   1.189   1.189   1.189   1.189   1.189   1.189   1.189   1.189   1.189   1.189   1.189   1.189   1.189   1.189
   184.33    1.189   1.189   1.189   1.189   1.189   1.189   1.189   1.189   1.189   1.189   1.189   1.189   1.189   1.189   1.189   1.189   1.189   1.189   1.189   1.189   1.189   1.189   1.189   1.189   1.189
   173.25    1.189   1.189   1.189   1.189   1.189   1.189   1.189   1.189   1.189   1.189   1.189   1.189   1.189   1.189   1.189   1.189   1.189   1.189   1.189   1.189   1.189   1.189   1.189   1.189   1.189
   162.17    1.189   1.189   1.189   1.189   1.189   1.189   1.189   1.189   1.189   1.189   1.189   1.189   1.189   1.189   1.189   1.189   1.189   1.189   1.189   1.189   1.189   1.189   1.189   1.189   1.189
   151.08    1.189   1.189   1.189   1.189   1.189   1.189   1.189   1.189   1.189   1.189   1.189   1.189   1.189   1.189   1.189   1.189   1.189   1.189   1.189   1.189   1.189   1.189   1.189   1.189   1.189
   140.00    1.189   1.189   1.189   1.189   1.189   1.189   1.189   1.189   1.189   1.189   1.189   1.189   1.189   1.189   1.189   1.189   1.189   1.189   1.189   1.189   1.189   1.189   1.189   1.189   1.189
   128.92    1.189   1.189   1.189   1.189   1.189   1.189   1.189   1.189   1.189   1.189   1.189   1.189   1.189   1.189   1.189   1.189   1.189   1.189   1.189   1.189   1.189   1.189   1.189   1.189   1.189
   117.83    1.189   1.189   1.189   1.189   1.189   1.189   1.189   1.189   1.189   1.189   1.189   1.189   1.189   1.189   1.189   1.189   1.189   1.189   1.189   1.189   1.189   1.189   1.189   1.189   1.189
   106.75    1.189   1.189   1.189   1.189   1.189   1.189   1.189   1.189   1.189   1.189   1.189   1.189   1.189   1.189   1.189   1.189   1.189   1.189   1.189   1.189   1.189   1.189   1.189   1.189   1.189
    95.67    1.189   1.189   1.189   1.189   1.189   1.189   1.189   1.189   1.189   1.189   1.189   1.189   1.189   1.189   1.189   1.189   1.189   1.189   1.189   1.189   1.189   1.189   1.189   1.189   1.189
    84.58    1.189   1.189   1.189   1.189   1.189   1.189   1.189   1.189   1.189   1.189   1.189   1.189   1.189   1.189   1.189   1.189   1.189   1.189   1.189   1.189   1.189   1.189   1.189   1.189   1.189
    73.50    1.189   1.189   1.189   1.189   1.189   1.189   1.189   1.189   1.189   1.189   1.189   1.189   1.189   1.189   1.189   1.189   1.189   1.189   1.189   1.189   1.189   1.189   1.189   1.189   1.189
    62.42    1.189   1.189   1.189   1.189   1.189   1.189   1.189   1.189   1.189   1.189   1.189   1.189   1.189   1.189   1.189   1.189   1.189   1.189   1.189   1.189   1.189   1.189   1.189   1.189   1.189
    51.33    1.189   1.189   1.189   1.189   1.189   1.189   1.189   1.189   1.189   1.189   1.189   1.189   1.189   1.189   1.189   1.189   1.189   1.189   1.189   1.189   1.189   1.189   1.189   1.189   1.189
    40.25    1.189   1.189   1.189   1.189   1.189   1.189   1.189   1.189   1.189   1.189   1.189   1.189   1.189   1.189   1.189   1.189   1.189   1.189   1.189   1.189   1.189   1.189   1.189   1.189   1.189
    29.17    1.189   1.189   1.189   1.189   1.189   1.189   1.189   1.189   1.189   1.189   1.189   1.189   1.189   1.189   1.189   1.189   1.189   1.189   1.189   1.189   1.189   1.189   1.189   1.189   1.189
    18.08    1.189   1.189   1.189   1.189   1.189   1.189   1.189   1.189   1.189   1.189   1.189   1.189   1.189   1.189   1.189   1.189   1.189   1.189   1.189   1.189   1.189   1.189   1.189   1.189   1.189
     7.00    1.189   1.189   1.189   1.189   1.189   1.189   1.189   1.189   1.189   1.189   1.189   1.189   1.189   1.189   1.189   1.189   1.189   1.189   1.189   1.189   1.189   1.189   1.189   1.189   1.189

   Mean standard deviation across all grid points:
      u component:    2.145 m/s
      v component:    1.859 m/s
      w component:    1.189 m/s


U-component (X) statistics from the interpolated hub point:

   Mean =  13.0000 m/s
   TI   =  15.2721 %


Processing complete.  36.868 CPU seconds used.
