
This summary file was generated by TurbSim (v2.00.08a-bjj, 18-Jul-2017) on 24-Jul-2020 at 16:31:22.


Runtime Options:

        11  Random seed #1
    RANLUX  Type of random number generator
         F  Output binary HH turbulence parameters?
         F  Output formatted turbulence parameters?
         F  Output AeroDyn HH files?
         T  Output AeroDyn FF files?
         F  Output BLADED FF files?
         F  Output tower data?
         F  Output formatted FF files?
         F  Output coherent turbulence time step file?
         T  Clockwise rotation when looking downwind?
 0 -  NONE  IEC turbulence models scaled to exact specified standard deviation


Turbine/Model Specifications:

        25  Vertical grid-point matrix dimension
        25  Horizontal grid-point matrix dimension
     0.050  Time step [seconds]
   180.000  Analysis time [seconds]
   180.000  Usable output time [seconds]
   140.000  Hub height [m]
   266.000  Grid height [m]
   266.000  Grid width [m]
     0.000  Vertical flow angle [degrees]
     0.000  Horizontal flow angle [degrees]


Meteorological Boundary Conditions:

    IECKAI  IEC Kaimal spectral model
         1  IEC standard: IEC 61400-1 Ed. 3: 2005
         A  IEC turbulence characteristic
       NTM  IEC Normal Turbulence Model
       N/A  IEC Extreme Turbulence Model (ETM) "c" parameter [m/s]
       PL   Wind profile type
   140.000  Reference height [m]
     3.000  Reference wind speed [m/s]
       N/A  Jet height [m]
     0.200  Power law exponent
     0.030  Surface roughness length [m]


Non-IEC Meteorological Boundary Conditions:

       N/A  Site latitude [degrees]
       N/A  Gradient Richardson number
       N/A  Friction or shear velocity [m/s]
       N/A  Mixing layer depth [m]
       N/A  Mean hub u'w' Reynolds stress
       N/A  Mean hub u'v' Reynolds stress
       N/A  Mean hub v'w' Reynolds stress


Spatial Coherence Models:

   GENERAL  u-component coherence model
   GENERAL  v-component coherence model
   GENERAL  w-component coherence model
(   12.000, 0.353E-03)  u-component coherence parameters
(*********,  0.00    )  v-component coherence parameters
(*********,  0.00    )  w-component coherence parameters
     0.000  Coherence exponent


You have requested that the following file(s) be generated:

   /home/mertzb/Documents/Analysis/BAR10/temp/Testing/Testing_powercurve_NTM_U3.000000_Seed11.0.bts (AeroDyn/TurbSim full-field wind file)


Turbulence Simulation Scaling Parameter Summary:

   Turbulence model used                            =  IEC Kaimal
   Turbulence characteristic                        =  A
   IEC turbulence type                              =  Normal Turbulence Model
   IEC standard                                     =  IEC 61400-1 Ed. 3: 2005
   Mean wind speed at hub height                    =    3.000 m/s
   Expected value of turbulence intensity at 15 m/s =   16.000%
   Characteristic value of standard deviation       =    1.256 m/s
   Turbulence scale                                 =   42.000 m
   u-component integral scale                       =  340.200 m
   Coherency scale                                  =  340.200 m
   Characteristic value of hub turbulence intensity =   41.867%
   Gradient Richardson number                       =    0.000

   Wind profile type                                =  Power law
   Power law exponent                               =    0.200
   Mean shear across rotor disk                     =    0.007 (m/s)/m
   Assumed rotor diameter                           =  266.000 m
   Surface roughness length                         =    0.030 m

   Nyquist frequency of turbulent wind field        =   10.000 Hz

   Number of time steps in the FFT                  =     3600
   Number of time steps output                      =     3600
   Number of points simulated                       =      625


Mean Flow Angles:

   Vertical   =   0.0 degrees
   Horizontal =   0.0 degrees

Mean Wind Speed Profile:

   Height    Wind Speed   Horizontal Angle  Vertical Angle  U-comp (X)   V-comp (Y)   W-comp (Z)
     (m)        (m/s)         (degrees)       (degrees)       (m/s)        (m/s)        (m/s)   
   ------    ----------   ----------------  --------------  ----------   ----------   ----------
    273.0        3.43            0.00            0.00          3.43         0.00         0.00
    261.9        3.40            0.00            0.00          3.40         0.00         0.00
    250.8        3.37            0.00            0.00          3.37         0.00         0.00
    239.8        3.34            0.00            0.00          3.34         0.00         0.00
    228.7        3.31            0.00            0.00          3.31         0.00         0.00
    217.6        3.28            0.00            0.00          3.28         0.00         0.00
    206.5        3.24            0.00            0.00          3.24         0.00         0.00
    195.4        3.21            0.00            0.00          3.21         0.00         0.00
    184.3        3.17            0.00            0.00          3.17         0.00         0.00
    173.2        3.13            0.00            0.00          3.13         0.00         0.00
    162.2        3.09            0.00            0.00          3.09         0.00         0.00
    151.1        3.05            0.00            0.00          3.05         0.00         0.00
    140.0        3.00            0.00            0.00          3.00         0.00         0.00
    128.9        2.95            0.00            0.00          2.95         0.00         0.00
    117.8        2.90            0.00            0.00          2.90         0.00         0.00
    106.8        2.84            0.00            0.00          2.84         0.00         0.00
     95.7        2.78            0.00            0.00          2.78         0.00         0.00
     84.6        2.71            0.00            0.00          2.71         0.00         0.00
     73.5        2.64            0.00            0.00          2.64         0.00         0.00
     62.4        2.55            0.00            0.00          2.55         0.00         0.00
     51.3        2.45            0.00            0.00          2.45         0.00         0.00
     40.2        2.34            0.00            0.00          2.34         0.00         0.00
     29.2        2.19            0.00            0.00          2.19         0.00         0.00
     18.1        1.99            0.00            0.00          1.99         0.00         0.00
      7.0        1.65            0.00            0.00          1.65         0.00         0.00


Harvested Random Seeds after Generation of the Random Numbers:

     31359375 K 1
            0 K 2


Hub-Height Simulated Turbulence Statistical Summary:

   Type of Wind        Min (m/s)   Mean (m/s)    Max (m/s)  Sigma (m/s)       TI (%)
   ----------------    ---------   ----------    ---------  -----------       ------
   Longitudinal (u)         1.11         3.00         5.51        0.960       32.011
   Lateral (v)             -2.21        -0.00         2.09        0.840       27.998
   Vertical (w)            -1.49         0.00         2.45        0.593       19.762
   U component              1.11         3.00         5.51        0.960       32.011
   V component             -2.21        -0.00         2.09        0.840       27.998
   W component             -1.49         0.00         2.45        0.593       19.762
   Horizontal (U&V)         1.16         3.13         5.55        0.920       29.410
   Total                    1.16         3.19         5.55        0.884       27.697

                       Min Reynolds     Mean Reynolds    Max Reynolds    Correlation
   Product             Stress (m/s)^2   Stress (m/s)^2   Stress (m/s)^2  Coefficient
   ----------------    --------------   --------------   --------------  -----------
   u'w'                     -2.861            -0.048             2.317        -0.085
   u'v'                     -3.010             0.199             2.674         0.247
   v'w'                     -2.195             0.005             2.488         0.011


   Friction Velocity (Ustar)  =      0.220 m/s
   Maximum Instantaneous TKE  =      3.890 (m/s)^2
   Maximum Instantaneous CTKE =      1.884 (m/s)^2


Grid Point Variance Summary:

   Y-coord -133.00 -121.92 -110.83  -99.75  -88.67  -77.58  -66.50  -55.42  -44.33  -33.25  -22.17  -11.08    0.00   11.08   22.17   33.25   44.33   55.42   66.50   77.58   88.67   99.75  110.83  121.92  133.00

   Height   Standard deviation at grid points for the u component:
   273.00    0.858   0.869   0.717   0.756   1.139   1.074   0.801   0.720   0.766   0.899   0.991   0.796   0.830   0.785   0.597   0.681   0.624   0.774   0.737   0.733   0.695   0.765   0.698   0.656   0.733
   261.92    1.201   0.994   1.000   1.028   1.398   1.240   0.893   0.662   0.953   0.786   0.715   0.852   1.031   0.641   0.694   0.671   0.562   0.756   0.656   0.765   1.019   0.919   0.696   0.745   0.666
   250.83    1.026   1.078   1.268   1.376   1.424   1.350   0.872   1.022   0.924   0.680   0.741   0.778   0.949   0.741   0.915   0.904   0.774   0.784   0.881   0.964   0.917   0.890   0.921   0.649   0.669
   239.75    1.055   1.079   1.180   1.199   1.002   1.132   1.057   0.926   0.675   0.845   0.681   0.818   0.759   0.744   0.869   0.949   0.630   0.952   0.729   0.854   0.840   0.858   1.045   0.963   1.036
   228.67    0.829   0.703   0.892   0.935   0.998   0.917   0.807   0.741   0.884   0.779   0.800   0.827   0.611   0.714   0.896   0.857   1.127   0.847   1.055   0.700   0.799   0.698   0.813   0.977   0.948
   217.58    0.656   0.654   0.766   0.708   0.911   0.858   0.511   0.734   1.003   0.916   0.809   0.698   0.626   0.772   0.806   0.881   1.122   0.941   0.989   0.911   0.952   0.726   0.676   0.831   0.910
   206.50    0.648   0.734   0.807   0.820   1.007   0.832   0.678   0.619   0.853   0.878   1.029   1.097   0.785   0.744   0.935   0.999   0.929   1.022   0.878   0.821   0.733   0.700   0.783   0.901   0.920
   195.42    0.781   0.760   0.845   0.686   0.917   0.891   0.771   0.943   0.746   1.001   0.951   1.015   0.948   0.648   0.892   0.903   1.084   0.949   0.846   0.723   0.787   0.650   0.749   0.833   0.903
   184.33    0.915   0.698   0.732   0.653   0.789   0.965   0.817   1.229   1.147   1.292   1.170   1.034   1.028   0.788   0.885   0.817   0.892   0.869   0.881   0.730   0.860   0.708   0.759   0.738   0.795
   173.25    0.844   0.839   0.746   0.558   0.861   0.870   1.086   1.359   1.225   0.874   1.121   1.223   1.033   1.249   1.057   0.697   0.838   0.933   0.740   0.606   0.706   0.659   0.625   0.718   0.756
   162.17    0.757   0.607   0.651   0.772   0.843   1.000   1.045   1.178   1.421   1.144   1.079   0.959   1.171   1.407   1.237   1.057   0.782   0.749   0.682   0.697   0.806   0.706   0.745   0.819   0.723
   151.08    0.899   0.825   0.719   0.661   0.834   1.058   1.089   0.927   1.261   1.494   1.306   1.260   1.255   1.260   1.363   1.166   1.088   0.620   0.578   0.702   0.695   0.694   0.615   0.754   0.880
   140.00    0.780   0.737   0.671   0.755   0.773   0.904   1.045   1.350   1.519   1.615   1.166   1.167   0.960   0.772   1.133   1.157   0.941   0.603   0.638   0.672   0.652   0.722   0.736   0.856   0.763
   128.92    0.873   0.842   0.700   0.801   1.119   0.914   1.125   1.138   1.302   1.429   1.470   1.074   0.819   0.908   0.961   1.050   0.618   0.870   0.694   0.676   0.789   0.942   1.017   0.815   0.756
   117.83    0.702   0.674   0.780   0.702   0.988   1.049   1.003   0.976   1.143   1.310   1.451   1.090   0.732   0.785   0.797   0.898   0.681   0.929   0.553   0.766   0.904   0.782   0.860   0.941   0.761
   106.75    0.869   0.587   0.795   0.752   0.656   0.902   1.040   1.161   1.093   1.078   1.182   0.964   0.851   0.885   0.739   0.872   0.821   0.765   0.703   0.854   0.858   0.685   0.806   0.853   0.937
    95.67    0.774   0.881   0.735   0.815   0.806   0.854   1.067   0.765   0.949   0.967   0.914   0.649   0.669   0.644   0.741   0.799   0.767   0.678   0.637   0.648   0.721   0.676   0.964   1.078   1.046
    84.58    0.737   0.744   0.816   0.858   0.671   0.895   0.948   0.881   1.049   0.851   0.705   0.774   0.620   0.715   0.824   0.675   0.601   0.750   0.723   0.794   0.846   0.811   0.859   1.115   1.266
    73.50    0.972   0.907   0.858   0.649   0.816   0.723   0.640   0.675   1.016   0.818   0.874   0.891   0.614   0.695   0.722   0.906   0.657   0.855   0.829   0.729   0.723   0.700   0.822   1.005   1.142
    62.42    0.798   0.787   0.791   0.703   0.806   0.609   0.769   0.853   1.010   1.047   1.045   0.938   0.836   0.614   0.732   0.765   0.674   0.833   0.997   0.633   0.711   0.820   0.581   0.857   0.871
    51.33    0.686   0.788   0.824   0.761   0.933   0.966   0.967   0.751   0.811   0.808   0.832   0.833   0.772   0.746   0.724   0.643   0.841   0.994   0.891   0.920   0.737   0.745   0.640   0.775   0.727
    40.25    0.730   0.582   0.783   0.994   0.841   0.864   0.839   0.828   0.826   0.737   0.843   0.714   0.715   0.718   0.860   1.087   0.896   1.185   0.787   0.656   0.802   0.611   0.741   0.636   0.715
    29.17    0.817   0.784   0.832   0.992   0.708   0.837   0.901   0.725   0.912   0.799   0.844   0.624   0.741   0.597   0.767   0.872   0.870   1.133   0.831   0.775   0.687   0.848   0.747   0.785   0.616
    18.08    0.920   0.867   0.995   1.187   0.747   0.831   0.574   0.736   0.909   1.121   0.701   0.756   0.868   0.753   0.777   0.791   1.011   1.036   1.066   0.812   0.688   0.870   0.964   0.985   0.652
     7.00    0.853   0.707   0.932   1.076   1.112   1.082   0.888   0.947   0.811   0.949   1.099   0.744   0.782   0.888   0.834   0.770   0.896   0.884   0.749   0.946   0.626   0.784   0.845   0.781   0.715

   Height   Standard deviation at grid points for the v component:
   273.00    0.840   0.840   0.840   0.840   0.840   0.840   0.840   0.840   0.840   0.840   0.840   0.840   0.840   0.840   0.840   0.840   0.840   0.840   0.840   0.840   0.840   0.840   0.840   0.840   0.840
   261.92    0.840   0.840   0.840   0.840   0.840   0.840   0.840   0.840   0.840   0.840   0.840   0.840   0.840   0.840   0.840   0.840   0.840   0.840   0.840   0.840   0.840   0.840   0.840   0.840   0.840
   250.83    0.840   0.840   0.840   0.840   0.840   0.840   0.840   0.840   0.840   0.840   0.840   0.840   0.840   0.840   0.840   0.840   0.840   0.840   0.840   0.840   0.840   0.840   0.840   0.840   0.840
   239.75    0.840   0.840   0.840   0.840   0.840   0.840   0.840   0.840   0.840   0.840   0.840   0.840   0.840   0.840   0.840   0.840   0.840   0.840   0.840   0.840   0.840   0.840   0.840   0.840   0.840
   228.67    0.840   0.840   0.840   0.840   0.840   0.840   0.840   0.840   0.840   0.840   0.840   0.840   0.840   0.840   0.840   0.840   0.840   0.840   0.840   0.840   0.840   0.840   0.840   0.840   0.840
   217.58    0.840   0.840   0.840   0.840   0.840   0.840   0.840   0.840   0.840   0.840   0.840   0.840   0.840   0.840   0.840   0.840   0.840   0.840   0.840   0.840   0.840   0.840   0.840   0.840   0.840
   206.50    0.840   0.840   0.840   0.840   0.840   0.840   0.840   0.840   0.840   0.840   0.840   0.840   0.840   0.840   0.840   0.840   0.840   0.840   0.840   0.840   0.840   0.840   0.840   0.840   0.840
   195.42    0.840   0.840   0.840   0.840   0.840   0.840   0.840   0.840   0.840   0.840   0.840   0.840   0.840   0.840   0.840   0.840   0.840   0.840   0.840   0.840   0.840   0.840   0.840   0.840   0.840
   184.33    0.840   0.840   0.840   0.840   0.840   0.840   0.840   0.840   0.840   0.840   0.840   0.840   0.840   0.840   0.840   0.840   0.840   0.840   0.840   0.840   0.840   0.840   0.840   0.840   0.840
   173.25    0.840   0.840   0.840   0.840   0.840   0.840   0.840   0.840   0.840   0.840   0.840   0.840   0.840   0.840   0.840   0.840   0.840   0.840   0.840   0.840   0.840   0.840   0.840   0.840   0.840
   162.17    0.840   0.840   0.840   0.840   0.840   0.840   0.840   0.840   0.840   0.840   0.840   0.840   0.840   0.840   0.840   0.840   0.840   0.840   0.840   0.840   0.840   0.840   0.840   0.840   0.840
   151.08    0.840   0.840   0.840   0.840   0.840   0.840   0.840   0.840   0.840   0.840   0.840   0.840   0.840   0.840   0.840   0.840   0.840   0.840   0.840   0.840   0.840   0.840   0.840   0.840   0.840
   140.00    0.840   0.840   0.840   0.840   0.840   0.840   0.840   0.840   0.840   0.840   0.840   0.840   0.840   0.840   0.840   0.840   0.840   0.840   0.840   0.840   0.840   0.840   0.840   0.840   0.840
   128.92    0.840   0.840   0.840   0.840   0.840   0.840   0.840   0.840   0.840   0.840   0.840   0.840   0.840   0.840   0.840   0.840   0.840   0.840   0.840   0.840   0.840   0.840   0.840   0.840   0.840
   117.83    0.840   0.840   0.840   0.840   0.840   0.840   0.840   0.840   0.840   0.840   0.840   0.840   0.840   0.840   0.840   0.840   0.840   0.840   0.840   0.840   0.840   0.840   0.840   0.840   0.840
   106.75    0.840   0.840   0.840   0.840   0.840   0.840   0.840   0.840   0.840   0.840   0.840   0.840   0.840   0.840   0.840   0.840   0.840   0.840   0.840   0.840   0.840   0.840   0.840   0.840   0.840
    95.67    0.840   0.840   0.840   0.840   0.840   0.840   0.840   0.840   0.840   0.840   0.840   0.840   0.840   0.840   0.840   0.840   0.840   0.840   0.840   0.840   0.840   0.840   0.840   0.840   0.840
    84.58    0.840   0.840   0.840   0.840   0.840   0.840   0.840   0.840   0.840   0.840   0.840   0.840   0.840   0.840   0.840   0.840   0.840   0.840   0.840   0.840   0.840   0.840   0.840   0.840   0.840
    73.50    0.840   0.840   0.840   0.840   0.840   0.840   0.840   0.840   0.840   0.840   0.840   0.840   0.840   0.840   0.840   0.840   0.840   0.840   0.840   0.840   0.840   0.840   0.840   0.840   0.840
    62.42    0.840   0.840   0.840   0.840   0.840   0.840   0.840   0.840   0.840   0.840   0.840   0.840   0.840   0.840   0.840   0.840   0.840   0.840   0.840   0.840   0.840   0.840   0.840   0.840   0.840
    51.33    0.840   0.840   0.840   0.840   0.840   0.840   0.840   0.840   0.840   0.840   0.840   0.840   0.840   0.840   0.840   0.840   0.840   0.840   0.840   0.840   0.840   0.840   0.840   0.840   0.840
    40.25    0.840   0.840   0.840   0.840   0.840   0.840   0.840   0.840   0.840   0.840   0.840   0.840   0.840   0.840   0.840   0.840   0.840   0.840   0.840   0.840   0.840   0.840   0.840   0.840   0.840
    29.17    0.840   0.840   0.840   0.840   0.840   0.840   0.840   0.840   0.840   0.840   0.840   0.840   0.840   0.840   0.840   0.840   0.840   0.840   0.840   0.840   0.840   0.840   0.840   0.840   0.840
    18.08    0.840   0.840   0.840   0.840   0.840   0.840   0.840   0.840   0.840   0.840   0.840   0.840   0.840   0.840   0.840   0.840   0.840   0.840   0.840   0.840   0.840   0.840   0.840   0.840   0.840
     7.00    0.840   0.840   0.840   0.840   0.840   0.840   0.840   0.840   0.840   0.840   0.840   0.840   0.840   0.840   0.840   0.840   0.840   0.840   0.840   0.840   0.840   0.840   0.840   0.840   0.840

   Height   Standard deviation at grid points for the w component:
   273.00    0.593   0.593   0.593   0.593   0.593   0.593   0.593   0.593   0.593   0.593   0.593   0.593   0.593   0.593   0.593   0.593   0.593   0.593   0.593   0.593   0.593   0.593   0.593   0.593   0.593
   261.92    0.593   0.593   0.593   0.593   0.593   0.593   0.593   0.593   0.593   0.593   0.593   0.593   0.593   0.593   0.593   0.593   0.593   0.593   0.593   0.593   0.593   0.593   0.593   0.593   0.593
   250.83    0.593   0.593   0.593   0.593   0.593   0.593   0.593   0.593   0.593   0.593   0.593   0.593   0.593   0.593   0.593   0.593   0.593   0.593   0.593   0.593   0.593   0.593   0.593   0.593   0.593
   239.75    0.593   0.593   0.593   0.593   0.593   0.593   0.593   0.593   0.593   0.593   0.593   0.593   0.593   0.593   0.593   0.593   0.593   0.593   0.593   0.593   0.593   0.593   0.593   0.593   0.593
   228.67    0.593   0.593   0.593   0.593   0.593   0.593   0.593   0.593   0.593   0.593   0.593   0.593   0.593   0.593   0.593   0.593   0.593   0.593   0.593   0.593   0.593   0.593   0.593   0.593   0.593
   217.58    0.593   0.593   0.593   0.593   0.593   0.593   0.593   0.593   0.593   0.593   0.593   0.593   0.593   0.593   0.593   0.593   0.593   0.593   0.593   0.593   0.593   0.593   0.593   0.593   0.593
   206.50    0.593   0.593   0.593   0.593   0.593   0.593   0.593   0.593   0.593   0.593   0.593   0.593   0.593   0.593   0.593   0.593   0.593   0.593   0.593   0.593   0.593   0.593   0.593   0.593   0.593
   195.42    0.593   0.593   0.593   0.593   0.593   0.593   0.593   0.593   0.593   0.593   0.593   0.593   0.593   0.593   0.593   0.593   0.593   0.593   0.593   0.593   0.593   0.593   0.593   0.593   0.593
   184.33    0.593   0.593   0.593   0.593   0.593   0.593   0.593   0.593   0.593   0.593   0.593   0.593   0.593   0.593   0.593   0.593   0.593   0.593   0.593   0.593   0.593   0.593   0.593   0.593   0.593
   173.25    0.593   0.593   0.593   0.593   0.593   0.593   0.593   0.593   0.593   0.593   0.593   0.593   0.593   0.593   0.593   0.593   0.593   0.593   0.593   0.593   0.593   0.593   0.593   0.593   0.593
   162.17    0.593   0.593   0.593   0.593   0.593   0.593   0.593   0.593   0.593   0.593   0.593   0.593   0.593   0.593   0.593   0.593   0.593   0.593   0.593   0.593   0.593   0.593   0.593   0.593   0.593
   151.08    0.593   0.593   0.593   0.593   0.593   0.593   0.593   0.593   0.593   0.593   0.593   0.593   0.593   0.593   0.593   0.593   0.593   0.593   0.593   0.593   0.593   0.593   0.593   0.593   0.593
   140.00    0.593   0.593   0.593   0.593   0.593   0.593   0.593   0.593   0.593   0.593   0.593   0.593   0.593   0.593   0.593   0.593   0.593   0.593   0.593   0.593   0.593   0.593   0.593   0.593   0.593
   128.92    0.593   0.593   0.593   0.593   0.593   0.593   0.593   0.593   0.593   0.593   0.593   0.593   0.593   0.593   0.593   0.593   0.593   0.593   0.593   0.593   0.593   0.593   0.593   0.593   0.593
   117.83    0.593   0.593   0.593   0.593   0.593   0.593   0.593   0.593   0.593   0.593   0.593   0.593   0.593   0.593   0.593   0.593   0.593   0.593   0.593   0.593   0.593   0.593   0.593   0.593   0.593
   106.75    0.593   0.593   0.593   0.593   0.593   0.593   0.593   0.593   0.593   0.593   0.593   0.593   0.593   0.593   0.593   0.593   0.593   0.593   0.593   0.593   0.593   0.593   0.593   0.593   0.593
    95.67    0.593   0.593   0.593   0.593   0.593   0.593   0.593   0.593   0.593   0.593   0.593   0.593   0.593   0.593   0.593   0.593   0.593   0.593   0.593   0.593   0.593   0.593   0.593   0.593   0.593
    84.58    0.593   0.593   0.593   0.593   0.593   0.593   0.593   0.593   0.593   0.593   0.593   0.593   0.593   0.593   0.593   0.593   0.593   0.593   0.593   0.593   0.593   0.593   0.593   0.593   0.593
    73.50    0.593   0.593   0.593   0.593   0.593   0.593   0.593   0.593   0.593   0.593   0.593   0.593   0.593   0.593   0.593   0.593   0.593   0.593   0.593   0.593   0.593   0.593   0.593   0.593   0.593
    62.42    0.593   0.593   0.593   0.593   0.593   0.593   0.593   0.593   0.593   0.593   0.593   0.593   0.593   0.593   0.593   0.593   0.593   0.593   0.593   0.593   0.593   0.593   0.593   0.593   0.593
    51.33    0.593   0.593   0.593   0.593   0.593   0.593   0.593   0.593   0.593   0.593   0.593   0.593   0.593   0.593   0.593   0.593   0.593   0.593   0.593   0.593   0.593   0.593   0.593   0.593   0.593
    40.25    0.593   0.593   0.593   0.593   0.593   0.593   0.593   0.593   0.593   0.593   0.593   0.593   0.593   0.593   0.593   0.593   0.593   0.593   0.593   0.593   0.593   0.593   0.593   0.593   0.593
    29.17    0.593   0.593   0.593   0.593   0.593   0.593   0.593   0.593   0.593   0.593   0.593   0.593   0.593   0.593   0.593   0.593   0.593   0.593   0.593   0.593   0.593   0.593   0.593   0.593   0.593
    18.08    0.593   0.593   0.593   0.593   0.593   0.593   0.593   0.593   0.593   0.593   0.593   0.593   0.593   0.593   0.593   0.593   0.593   0.593   0.593   0.593   0.593   0.593   0.593   0.593   0.593
     7.00    0.593   0.593   0.593   0.593   0.593   0.593   0.593   0.593   0.593   0.593   0.593   0.593   0.593   0.593   0.593   0.593   0.593   0.593   0.593   0.593   0.593   0.593   0.593   0.593   0.593

   Mean standard deviation across all grid points:
      u component:    0.861 m/s
      v component:    0.840 m/s
      w component:    0.593 m/s


U-component (X) statistics from the interpolated hub point:

   Mean =   3.0000 m/s
   TI   =  32.0114 %


Processing complete.  14.575 CPU seconds used.
