
This summary file was generated by TurbSim (v2.00.08a-bjj, 18-Jul-2017) on 24-Jul-2020 at 16:35:16.


Runtime Options:

        11  Random seed #1
    RANLUX  Type of random number generator
         F  Output binary HH turbulence parameters?
         F  Output formatted turbulence parameters?
         F  Output AeroDyn HH files?
         T  Output AeroDyn FF files?
         F  Output BLADED FF files?
         F  Output tower data?
         F  Output formatted FF files?
         F  Output coherent turbulence time step file?
         T  Clockwise rotation when looking downwind?
 0 -  NONE  IEC turbulence models scaled to exact specified standard deviation


Turbine/Model Specifications:

        25  Vertical grid-point matrix dimension
        25  Horizontal grid-point matrix dimension
     0.050  Time step [seconds]
   180.000  Analysis time [seconds]
   180.000  Usable output time [seconds]
   140.000  Hub height [m]
   266.000  Grid height [m]
   266.000  Grid width [m]
     0.000  Vertical flow angle [degrees]
     0.000  Horizontal flow angle [degrees]


Meteorological Boundary Conditions:

    IECKAI  IEC Kaimal spectral model
         1  IEC standard: IEC 61400-1 Ed. 3: 2005
         A  IEC turbulence characteristic
       NTM  IEC Normal Turbulence Model
       N/A  IEC Extreme Turbulence Model (ETM) "c" parameter [m/s]
       PL   Wind profile type
   140.000  Reference height [m]
    13.000  Reference wind speed [m/s]
       N/A  Jet height [m]
     0.200  Power law exponent
     0.030  Surface roughness length [m]


Non-IEC Meteorological Boundary Conditions:

       N/A  Site latitude [degrees]
       N/A  Gradient Richardson number
       N/A  Friction or shear velocity [m/s]
       N/A  Mixing layer depth [m]
       N/A  Mean hub u'w' Reynolds stress
       N/A  Mean hub u'v' Reynolds stress
       N/A  Mean hub v'w' Reynolds stress


Spatial Coherence Models:

   GENERAL  u-component coherence model
   GENERAL  v-component coherence model
   GENERAL  w-component coherence model
(   12.000, 0.353E-03)  u-component coherence parameters
(*********,  0.00    )  v-component coherence parameters
(*********,  0.00    )  w-component coherence parameters
     0.000  Coherence exponent


You have requested that the following file(s) be generated:

   /home/mertzb/Documents/Analysis/BAR10/temp/Testing/Testing_powercurve_NTM_U13.000000_Seed11.0.bts (AeroDyn/TurbSim full-field wind file)


Turbulence Simulation Scaling Parameter Summary:

   Turbulence model used                            =  IEC Kaimal
   Turbulence characteristic                        =  A
   IEC turbulence type                              =  Normal Turbulence Model
   IEC standard                                     =  IEC 61400-1 Ed. 3: 2005
   Mean wind speed at hub height                    =   13.000 m/s
   Expected value of turbulence intensity at 15 m/s =   16.000%
   Characteristic value of standard deviation       =    2.456 m/s
   Turbulence scale                                 =   42.000 m
   u-component integral scale                       =  340.200 m
   Coherency scale                                  =  340.200 m
   Characteristic value of hub turbulence intensity =   18.892%
   Gradient Richardson number                       =    0.000

   Wind profile type                                =  Power law
   Power law exponent                               =    0.200
   Mean shear across rotor disk                     =    0.029 (m/s)/m
   Assumed rotor diameter                           =  266.000 m
   Surface roughness length                         =    0.030 m

   Nyquist frequency of turbulent wind field        =   10.000 Hz

   Number of time steps in the FFT                  =     3600
   Number of time steps output                      =     3600
   Number of points simulated                       =      625


Mean Flow Angles:

   Vertical   =   0.0 degrees
   Horizontal =   0.0 degrees

Mean Wind Speed Profile:

   Height    Wind Speed   Horizontal Angle  Vertical Angle  U-comp (X)   V-comp (Y)   W-comp (Z)
     (m)        (m/s)         (degrees)       (degrees)       (m/s)        (m/s)        (m/s)   
   ------    ----------   ----------------  --------------  ----------   ----------   ----------
    273.0       14.86            0.00            0.00         14.86         0.00         0.00
    261.9       14.74            0.00            0.00         14.74         0.00         0.00
    250.8       14.61            0.00            0.00         14.61         0.00         0.00
    239.8       14.48            0.00            0.00         14.48         0.00         0.00
    228.7       14.34            0.00            0.00         14.34         0.00         0.00
    217.6       14.20            0.00            0.00         14.20         0.00         0.00
    206.5       14.05            0.00            0.00         14.05         0.00         0.00
    195.4       13.90            0.00            0.00         13.90         0.00         0.00
    184.3       13.74            0.00            0.00         13.74         0.00         0.00
    173.2       13.57            0.00            0.00         13.57         0.00         0.00
    162.2       13.39            0.00            0.00         13.39         0.00         0.00
    151.1       13.20            0.00            0.00         13.20         0.00         0.00
    140.0       13.00            0.00            0.00         13.00         0.00         0.00
    128.9       12.79            0.00            0.00         12.79         0.00         0.00
    117.8       12.56            0.00            0.00         12.56         0.00         0.00
    106.8       12.31            0.00            0.00         12.31         0.00         0.00
     95.7       12.05            0.00            0.00         12.05         0.00         0.00
     84.6       11.75            0.00            0.00         11.75         0.00         0.00
     73.5       11.43            0.00            0.00         11.43         0.00         0.00
     62.4       11.06            0.00            0.00         11.06         0.00         0.00
     51.3       10.64            0.00            0.00         10.64         0.00         0.00
     40.2       10.13            0.00            0.00         10.13         0.00         0.00
     29.2        9.50            0.00            0.00          9.50         0.00         0.00
     18.1        8.63            0.00            0.00          8.63         0.00         0.00
      7.0        7.14            0.00            0.00          7.14         0.00         0.00


Harvested Random Seeds after Generation of the Random Numbers:

     31359375 K 1
            0 K 2


Hub-Height Simulated Turbulence Statistical Summary:

   Type of Wind        Min (m/s)   Mean (m/s)    Max (m/s)  Sigma (m/s)       TI (%)
   ----------------    ---------   ----------    ---------  -----------       ------
   Longitudinal (u)         6.02        13.00        19.73        2.572       19.788
   Lateral (v)             -5.18         0.00         5.61        1.859       14.302
   Vertical (w)            -3.43        -0.00         4.80        1.189        9.147
   U component              6.02        13.00        19.73        2.572       19.788
   V component             -5.18         0.00         5.61        1.859       14.302
   W component             -3.43        -0.00         4.80        1.189        9.147
   Horizontal (U&V)         6.49        13.14        19.74        2.537       19.306
   Total                    6.57        13.20        19.84        2.521       19.108

                       Min Reynolds     Mean Reynolds    Max Reynolds    Correlation
   Product             Stress (m/s)^2   Stress (m/s)^2   Stress (m/s)^2  Coefficient
   ----------------    --------------   --------------   --------------  -----------
   u'w'                    -21.326            -0.363             9.684        -0.119
   u'v'                    -26.640             0.436            20.971         0.091
   v'w'                    -12.983            -0.035            13.334        -0.016


   Friction Velocity (Ustar)  =      0.602 m/s
   Maximum Instantaneous TKE  =     31.194 (m/s)^2
   Maximum Instantaneous CTKE =     14.525 (m/s)^2


Grid Point Variance Summary:

   Y-coord -133.00 -121.92 -110.83  -99.75  -88.67  -77.58  -66.50  -55.42  -44.33  -33.25  -22.17  -11.08    0.00   11.08   22.17   33.25   44.33   55.42   66.50   77.58   88.67   99.75  110.83  121.92  133.00

   Height   Standard deviation at grid points for the u component:
   273.00    2.541   2.564   2.305   2.229   2.632   2.507   2.123   2.086   2.416   2.193   2.258   1.950   2.239   2.091   1.790   2.077   2.151   2.295   2.397   2.293   2.395   2.330   2.293   2.310   2.308
   261.92    2.815   2.572   2.544   2.497   2.869   2.862   2.592   2.285   2.766   2.337   2.017   1.963   2.185   1.968   1.942   2.127   2.165   2.360   2.288   2.317   2.658   2.566   2.328   2.231   2.415
   250.83    2.663   2.481   2.666   2.793   2.743   2.735   2.381   2.629   2.583   2.271   2.123   2.025   2.215   2.169   2.546   2.326   2.152   2.415   2.543   2.486   2.149   2.318   2.365   2.055   2.250
   239.75    2.437   2.318   2.504   2.406   2.148   2.425   2.447   2.504   2.127   2.423   2.278   2.409   2.157   2.452   2.661   2.724   2.370   2.834   2.346   2.213   2.286   2.102   2.216   2.080   2.354
   228.67    2.161   1.895   2.178   2.311   2.201   2.402   2.318   2.208   2.538   2.494   2.541   2.549   1.975   2.392   2.605   2.696   2.979   2.571   2.789   2.159   2.138   1.781   1.894   1.891   2.248
   217.58    2.000   2.110   2.139   2.198   2.291   2.297   1.821   2.241   2.656   2.671   2.623   2.438   2.268   2.286   2.463   2.604   2.807   2.630   2.663   2.379   2.080   1.666   1.696   1.987   1.965
   206.50    2.241   2.309   2.348   2.240   2.498   2.161   1.843   2.056   2.375   2.403   2.786   2.885   2.536   2.295   2.602   2.741   2.546   2.688   2.476   2.077   2.075   1.745   2.042   1.919   2.225
   195.42    2.432   2.228   2.250   2.003   2.066   2.311   2.142   2.459   2.298   2.577   2.578   2.707   2.693   2.154   2.500   2.528   2.783   2.533   2.363   1.888   1.835   2.014   1.945   1.932   1.982
   184.33    2.372   2.108   1.890   1.821   1.980   2.321   2.246   2.871   2.758   2.834   2.781   2.660   2.554   2.368   2.399   2.286   2.387   2.392   2.369   1.927   2.112   1.815   1.790   2.015   1.946
   173.25    2.287   2.135   2.134   1.739   2.228   2.221   2.662   3.038   2.934   2.603   2.734   2.767   2.586   2.768   2.507   2.282   2.290   2.436   2.213   1.956   2.008   2.022   1.823   2.016   2.210
   162.17    2.032   1.811   2.058   1.974   2.243   2.620   2.651   2.856   3.228   3.014   2.809   2.682   2.761   2.956   2.709   2.669   2.343   2.001   2.078   1.921   2.176   2.035   2.346   2.322   2.079
   151.08    2.008   1.946   1.746   2.022   2.281   2.552   2.652   2.572   2.997   3.414   3.144   2.995   2.852   2.804   2.841   2.674   2.439   2.110   1.914   2.019   2.046   2.017   2.226   2.239   2.385
   140.00    2.025   1.609   1.599   2.083   2.145   2.241   2.466   3.008   3.296   3.463   3.158   2.947   2.572   2.191   2.442   2.412   2.327   1.958   1.901   1.780   2.089   2.189   2.211   2.493   2.367
   128.92    1.818   1.616   1.691   2.141   2.523   2.398   2.501   2.694   3.043   3.198   3.334   2.827   2.346   2.316   2.214   2.263   1.781   2.092   1.966   1.997   2.142   2.260   2.326   2.305   2.381
   117.83    1.734   1.637   1.909   1.957   2.182   2.482   2.447   2.354   2.766   3.015   3.262   2.901   2.205   2.190   2.005   2.068   1.927   2.215   1.904   1.998   1.963   2.279   2.198   2.354   2.269
   106.75    2.086   2.005   1.938   2.083   2.015   2.086   2.362   2.500   2.494   2.667   2.776   2.609   2.335   2.264   1.909   2.019   1.959   1.963   1.914   2.216   2.284   2.203   1.959   2.060   2.289
    95.67    2.167   2.079   2.269   2.070   2.125   2.149   2.202   2.006   2.245   2.241   2.385   2.060   2.008   1.843   1.931   2.060   2.067   1.996   1.718   1.868   2.285   2.148   2.272   2.286   2.269
    84.58    2.066   2.191   2.197   2.077   1.865   2.028   1.889   2.001   2.168   2.109   1.889   2.057   2.055   2.004   2.324   2.242   1.578   1.802   1.883   1.931   2.247   2.300   2.153   2.355   2.419
    73.50    2.426   2.310   2.230   1.933   2.163   2.214   2.031   1.800   2.166   2.142   2.249   2.334   1.942   1.963   2.115   2.221   1.931   2.257   2.281   2.041   2.138   2.263   2.056   2.277   2.420
    62.42    2.289   2.169   2.272   2.259   2.443   2.217   2.401   2.304   2.411   2.569   2.475   2.201   2.164   1.734   2.091   2.024   1.894   2.293   2.606   2.317   2.361   2.303   1.936   1.892   2.117
    51.33    2.197   2.429   2.398   2.089   2.523   2.491   2.440   2.151   2.252   2.242   2.154   2.047   1.648   1.604   2.116   2.059   2.082   2.289   2.301   2.447   2.261   2.216   1.911   1.923   1.885
    40.25    2.337   2.063   2.271   2.485   2.311   2.494   2.406   2.430   2.252   2.204   2.406   2.079   1.834   1.787   2.161   2.444   2.328   2.780   2.351   2.143   2.488   2.097   1.976   1.934   1.863
    29.17    2.361   2.115   2.080   2.378   2.396   2.290   2.362   2.335   2.283   2.172   2.090   2.006   2.122   1.802   2.223   2.069   2.125   2.585   2.251   2.311   2.114   2.288   2.109   1.929   1.720
    18.08    2.330   2.169   2.305   2.685   2.553   2.661   2.202   2.195   2.364   2.615   2.186   2.099   2.090   2.096   2.196   2.207   2.441   2.305   2.318   2.267   1.985   1.920   1.815   2.067   1.803
     7.00    2.149   1.869   2.217   2.549   2.686   2.911   2.760   2.564   2.398   2.482   2.705   2.223   1.867   2.150   2.032   1.817   2.010   1.962   1.848   2.223   1.850   1.863   1.631   1.850   1.772

   Height   Standard deviation at grid points for the v component:
   273.00    1.859   1.859   1.859   1.859   1.859   1.859   1.859   1.859   1.859   1.859   1.859   1.859   1.859   1.859   1.859   1.859   1.859   1.859   1.859   1.859   1.859   1.859   1.859   1.859   1.859
   261.92    1.859   1.859   1.859   1.859   1.859   1.859   1.859   1.859   1.859   1.859   1.859   1.859   1.859   1.859   1.859   1.859   1.859   1.859   1.859   1.859   1.859   1.859   1.859   1.859   1.859
   250.83    1.859   1.859   1.859   1.859   1.859   1.859   1.859   1.859   1.859   1.859   1.859   1.859   1.859   1.859   1.859   1.859   1.859   1.859   1.859   1.859   1.859   1.859   1.859   1.859   1.859
   239.75    1.859   1.859   1.859   1.859   1.859   1.859   1.859   1.859   1.859   1.859   1.859   1.859   1.859   1.859   1.859   1.859   1.859   1.859   1.859   1.859   1.859   1.859   1.859   1.859   1.859
   228.67    1.859   1.859   1.859   1.859   1.859   1.859   1.859   1.859   1.859   1.859   1.859   1.859   1.859   1.859   1.859   1.859   1.859   1.859   1.859   1.859   1.859   1.859   1.859   1.859   1.859
   217.58    1.859   1.859   1.859   1.859   1.859   1.859   1.859   1.859   1.859   1.859   1.859   1.859   1.859   1.859   1.859   1.859   1.859   1.859   1.859   1.859   1.859   1.859   1.859   1.859   1.859
   206.50    1.859   1.859   1.859   1.859   1.859   1.859   1.859   1.859   1.859   1.859   1.859   1.859   1.859   1.859   1.859   1.859   1.859   1.859   1.859   1.859   1.859   1.859   1.859   1.859   1.859
   195.42    1.859   1.859   1.859   1.859   1.859   1.859   1.859   1.859   1.859   1.859   1.859   1.859   1.859   1.859   1.859   1.859   1.859   1.859   1.859   1.859   1.859   1.859   1.859   1.859   1.859
   184.33    1.859   1.859   1.859   1.859   1.859   1.859   1.859   1.859   1.859   1.859   1.859   1.859   1.859   1.859   1.859   1.859   1.859   1.859   1.859   1.859   1.859   1.859   1.859   1.859   1.859
   173.25    1.859   1.859   1.859   1.859   1.859   1.859   1.859   1.859   1.859   1.859   1.859   1.859   1.859   1.859   1.859   1.859   1.859   1.859   1.859   1.859   1.859   1.859   1.859   1.859   1.859
   162.17    1.859   1.859   1.859   1.859   1.859   1.859   1.859   1.859   1.859   1.859   1.859   1.859   1.859   1.859   1.859   1.859   1.859   1.859   1.859   1.859   1.859   1.859   1.859   1.859   1.859
   151.08    1.859   1.859   1.859   1.859   1.859   1.859   1.859   1.859   1.859   1.859   1.859   1.859   1.859   1.859   1.859   1.859   1.859   1.859   1.859   1.859   1.859   1.859   1.859   1.859   1.859
   140.00    1.859   1.859   1.859   1.859   1.859   1.859   1.859   1.859   1.859   1.859   1.859   1.859   1.859   1.859   1.859   1.859   1.859   1.859   1.859   1.859   1.859   1.859   1.859   1.859   1.859
   128.92    1.859   1.859   1.859   1.859   1.859   1.859   1.859   1.859   1.859   1.859   1.859   1.859   1.859   1.859   1.859   1.859   1.859   1.859   1.859   1.859   1.859   1.859   1.859   1.859   1.859
   117.83    1.859   1.859   1.859   1.859   1.859   1.859   1.859   1.859   1.859   1.859   1.859   1.859   1.859   1.859   1.859   1.859   1.859   1.859   1.859   1.859   1.859   1.859   1.859   1.859   1.859
   106.75    1.859   1.859   1.859   1.859   1.859   1.859   1.859   1.859   1.859   1.859   1.859   1.859   1.859   1.859   1.859   1.859   1.859   1.859   1.859   1.859   1.859   1.859   1.859   1.859   1.859
    95.67    1.859   1.859   1.859   1.859   1.859   1.859   1.859   1.859   1.859   1.859   1.859   1.859   1.859   1.859   1.859   1.859   1.859   1.859   1.859   1.859   1.859   1.859   1.859   1.859   1.859
    84.58    1.859   1.859   1.859   1.859   1.859   1.859   1.859   1.859   1.859   1.859   1.859   1.859   1.859   1.859   1.859   1.859   1.859   1.859   1.859   1.859   1.859   1.859   1.859   1.859   1.859
    73.50    1.859   1.859   1.859   1.859   1.859   1.859   1.859   1.859   1.859   1.859   1.859   1.859   1.859   1.859   1.859   1.859   1.859   1.859   1.859   1.859   1.859   1.859   1.859   1.859   1.859
    62.42    1.859   1.859   1.859   1.859   1.859   1.859   1.859   1.859   1.859   1.859   1.859   1.859   1.859   1.859   1.859   1.859   1.859   1.859   1.859   1.859   1.859   1.859   1.859   1.859   1.859
    51.33    1.859   1.859   1.859   1.859   1.859   1.859   1.859   1.859   1.859   1.859   1.859   1.859   1.859   1.859   1.859   1.859   1.859   1.859   1.859   1.859   1.859   1.859   1.859   1.859   1.859
    40.25    1.859   1.859   1.859   1.859   1.859   1.859   1.859   1.859   1.859   1.859   1.859   1.859   1.859   1.859   1.859   1.859   1.859   1.859   1.859   1.859   1.859   1.859   1.859   1.859   1.859
    29.17    1.859   1.859   1.859   1.859   1.859   1.859   1.859   1.859   1.859   1.859   1.859   1.859   1.859   1.859   1.859   1.859   1.859   1.859   1.859   1.859   1.859   1.859   1.859   1.859   1.859
    18.08    1.859   1.859   1.859   1.859   1.859   1.859   1.859   1.859   1.859   1.859   1.859   1.859   1.859   1.859   1.859   1.859   1.859   1.859   1.859   1.859   1.859   1.859   1.859   1.859   1.859
     7.00    1.859   1.859   1.859   1.859   1.859   1.859   1.859   1.859   1.859   1.859   1.859   1.859   1.859   1.859   1.859   1.859   1.859   1.859   1.859   1.859   1.859   1.859   1.859   1.859   1.859

   Height   Standard deviation at grid points for the w component:
   273.00    1.189   1.189   1.189   1.189   1.189   1.189   1.189   1.189   1.189   1.189   1.189   1.189   1.189   1.189   1.189   1.189   1.189   1.189   1.189   1.189   1.189   1.189   1.189   1.189   1.189
   261.92    1.189   1.189   1.189   1.189   1.189   1.189   1.189   1.189   1.189   1.189   1.189   1.189   1.189   1.189   1.189   1.189   1.189   1.189   1.189   1.189   1.189   1.189   1.189   1.189   1.189
   250.83    1.189   1.189   1.189   1.189   1.189   1.189   1.189   1.189   1.189   1.189   1.189   1.189   1.189   1.189   1.189   1.189   1.189   1.189   1.189   1.189   1.189   1.189   1.189   1.189   1.189
   239.75    1.189   1.189   1.189   1.189   1.189   1.189   1.189   1.189   1.189   1.189   1.189   1.189   1.189   1.189   1.189   1.189   1.189   1.189   1.189   1.189   1.189   1.189   1.189   1.189   1.189
   228.67    1.189   1.189   1.189   1.189   1.189   1.189   1.189   1.189   1.189   1.189   1.189   1.189   1.189   1.189   1.189   1.189   1.189   1.189   1.189   1.189   1.189   1.189   1.189   1.189   1.189
   217.58    1.189   1.189   1.189   1.189   1.189   1.189   1.189   1.189   1.189   1.189   1.189   1.189   1.189   1.189   1.189   1.189   1.189   1.189   1.189   1.189   1.189   1.189   1.189   1.189   1.189
   206.50    1.189   1.189   1.189   1.189   1.189   1.189   1.189   1.189   1.189   1.189   1.189   1.189   1.189   1.189   1.189   1.189   1.189   1.189   1.189   1.189   1.189   1.189   1.189   1.189   1.189
   195.42    1.189   1.189   1.189   1.189   1.189   1.189   1.189   1.189   1.189   1.189   1.189   1.189   1.189   1.189   1.189   1.189   1.189   1.189   1.189   1.189   1.189   1.189   1.189   1.189   1.189
   184.33    1.189   1.189   1.189   1.189   1.189   1.189   1.189   1.189   1.189   1.189   1.189   1.189   1.189   1.189   1.189   1.189   1.189   1.189   1.189   1.189   1.189   1.189   1.189   1.189   1.189
   173.25    1.189   1.189   1.189   1.189   1.189   1.189   1.189   1.189   1.189   1.189   1.189   1.189   1.189   1.189   1.189   1.189   1.189   1.189   1.189   1.189   1.189   1.189   1.189   1.189   1.189
   162.17    1.189   1.189   1.189   1.189   1.189   1.189   1.189   1.189   1.189   1.189   1.189   1.189   1.189   1.189   1.189   1.189   1.189   1.189   1.189   1.189   1.189   1.189   1.189   1.189   1.189
   151.08    1.189   1.189   1.189   1.189   1.189   1.189   1.189   1.189   1.189   1.189   1.189   1.189   1.189   1.189   1.189   1.189   1.189   1.189   1.189   1.189   1.189   1.189   1.189   1.189   1.189
   140.00    1.189   1.189   1.189   1.189   1.189   1.189   1.189   1.189   1.189   1.189   1.189   1.189   1.189   1.189   1.189   1.189   1.189   1.189   1.189   1.189   1.189   1.189   1.189   1.189   1.189
   128.92    1.189   1.189   1.189   1.189   1.189   1.189   1.189   1.189   1.189   1.189   1.189   1.189   1.189   1.189   1.189   1.189   1.189   1.189   1.189   1.189   1.189   1.189   1.189   1.189   1.189
   117.83    1.189   1.189   1.189   1.189   1.189   1.189   1.189   1.189   1.189   1.189   1.189   1.189   1.189   1.189   1.189   1.189   1.189   1.189   1.189   1.189   1.189   1.189   1.189   1.189   1.189
   106.75    1.189   1.189   1.189   1.189   1.189   1.189   1.189   1.189   1.189   1.189   1.189   1.189   1.189   1.189   1.189   1.189   1.189   1.189   1.189   1.189   1.189   1.189   1.189   1.189   1.189
    95.67    1.189   1.189   1.189   1.189   1.189   1.189   1.189   1.189   1.189   1.189   1.189   1.189   1.189   1.189   1.189   1.189   1.189   1.189   1.189   1.189   1.189   1.189   1.189   1.189   1.189
    84.58    1.189   1.189   1.189   1.189   1.189   1.189   1.189   1.189   1.189   1.189   1.189   1.189   1.189   1.189   1.189   1.189   1.189   1.189   1.189   1.189   1.189   1.189   1.189   1.189   1.189
    73.50    1.189   1.189   1.189   1.189   1.189   1.189   1.189   1.189   1.189   1.189   1.189   1.189   1.189   1.189   1.189   1.189   1.189   1.189   1.189   1.189   1.189   1.189   1.189   1.189   1.189
    62.42    1.189   1.189   1.189   1.189   1.189   1.189   1.189   1.189   1.189   1.189   1.189   1.189   1.189   1.189   1.189   1.189   1.189   1.189   1.189   1.189   1.189   1.189   1.189   1.189   1.189
    51.33    1.189   1.189   1.189   1.189   1.189   1.189   1.189   1.189   1.189   1.189   1.189   1.189   1.189   1.189   1.189   1.189   1.189   1.189   1.189   1.189   1.189   1.189   1.189   1.189   1.189
    40.25    1.189   1.189   1.189   1.189   1.189   1.189   1.189   1.189   1.189   1.189   1.189   1.189   1.189   1.189   1.189   1.189   1.189   1.189   1.189   1.189   1.189   1.189   1.189   1.189   1.189
    29.17    1.189   1.189   1.189   1.189   1.189   1.189   1.189   1.189   1.189   1.189   1.189   1.189   1.189   1.189   1.189   1.189   1.189   1.189   1.189   1.189   1.189   1.189   1.189   1.189   1.189
    18.08    1.189   1.189   1.189   1.189   1.189   1.189   1.189   1.189   1.189   1.189   1.189   1.189   1.189   1.189   1.189   1.189   1.189   1.189   1.189   1.189   1.189   1.189   1.189   1.189   1.189
     7.00    1.189   1.189   1.189   1.189   1.189   1.189   1.189   1.189   1.189   1.189   1.189   1.189   1.189   1.189   1.189   1.189   1.189   1.189   1.189   1.189   1.189   1.189   1.189   1.189   1.189

   Mean standard deviation across all grid points:
      u component:    2.272 m/s
      v component:    1.859 m/s
      w component:    1.189 m/s


U-component (X) statistics from the interpolated hub point:

   Mean =  13.0000 m/s
   TI   =  19.7881 %


Processing complete.  36.965 CPU seconds used.
