
This summary information was generated by ElastoDyn on 24-Jul-2020 at 18:16:40.


Turbine features:

            Upwind, three-bladed rotor with rigid hub.
            The model has 8 of 24 DOFs active (enabled) at start-up.
 Disabled   Platform horizontal surge translation DOF 
 Disabled   Platform horizontal sway translation DOF 
 Disabled   Platform vertical heave translation DOF 
 Disabled   Platform roll tilt rotation DOF 
 Disabled   Platform pitch tilt rotation DOF 
 Disabled   Platform yaw rotation DOF 
 Disabled   1st tower fore-aft bending mode DOF 
 Disabled   1st tower side-to-side bending mode DOF 
 Disabled   2nd tower fore-aft bending mode DOF 
 Disabled   2nd tower side-to-side bending mode DOF 
 Enabled    Nacelle yaw DOF 
 Disabled   Rotor-furl DOF 
 Enabled    Variable speed generator DOF 
 Disabled   Drivetrain rotational-flexibility DOF 
 Disabled   Tail-furl DOF 
 Enabled    1st flapwise bending-mode DOF of blade 1 
 Disabled   1st edgewise bending-mode DOF of blade 1 
 Enabled    2nd flapwise bending-mode DOF of blade 1 
 Enabled    1st flapwise bending-mode DOF of blade 2 
 Disabled   1st edgewise bending-mode DOF of blade 2 
 Enabled    2nd flapwise bending-mode DOF of blade 2 
 Enabled    1st flapwise bending-mode DOF of blade 3 
 Disabled   1st edgewise bending-mode DOF of blade 3 
 Enabled    2nd flapwise bending-mode DOF of blade 3 


Time steps:

    Structural            (s)        0.00625000


Some calculated parameters:

    Hub-Height            (m)           140.825
    Flexible Tower Length (m)           137.000
    Flexible Blade Length (m)            99.996


Rotor mass properties:

    Rotor Mass            (kg)       309033.203
    Rotor Inertia         (kg-m^2)291852036.732
                                        Blade 1      Blade 2      Blade 3
                                        -------      -------      -------
    Mass                  (kg)        61869.631    61869.631    61869.631
    Second Mass Moment    (kg-m^2) 86404182.881 86404182.881 86404182.881
    First Mass Moment     (kg-m)    1748425.213  1748425.213  1748425.213
    Center of Mass        (m)            28.260       28.260       28.260


Additional mass properties:

    Tower-top Mass        (kg)       722039.098
    Tower Mass            (kg)       858161.854
    Platform Mass         (kg)            0.000
    Mass Incl. Platform   (kg)      1580200.952


Interpolated tower properties:

Node  TwFract   HNodes  DHNodes  TMassDen    FAStiff    SSStiff
 (-)      (-)      (m)      (m)    (kg/m)     (Nm^2)     (Nm^2)
   1    0.025    3.425    6.850 10301.557  1.121E+12  1.121E+12
   2    0.075   10.275    6.850 10301.557  1.121E+12  1.121E+12
   3    0.125   17.125    6.850  9360.097  1.020E+12  1.020E+12
   4    0.175   23.975    6.850  9360.097  1.020E+12  1.020E+12
   5    0.225   30.825    6.850  8259.297  9.025E+11  9.025E+11
   6    0.275   37.675    6.850  8259.297  9.025E+11  9.025E+11
   7    0.325   44.525    6.850  7313.672  8.007E+11  8.007E+11
   8    0.375   51.375    6.850  7313.672  8.007E+11  8.007E+11
   9    0.425   58.225    6.850  6524.182  7.155E+11  7.155E+11
  10    0.475   65.075    6.850  6524.182  7.155E+11  7.155E+11
  11    0.525   71.925    6.850  5733.356  6.298E+11  6.298E+11
  12    0.575   78.775    6.850  5733.356  6.298E+11  6.298E+11
  13    0.625   85.625    6.850  4941.196  5.437E+11  5.437E+11
  14    0.675   92.475    6.850  4941.196  5.437E+11  5.437E+11
  15    0.725   99.325    6.850  4147.700  4.571E+11  4.571E+11
  16    0.775  106.175    6.850  4147.700  4.571E+11  4.571E+11
  17    0.825  113.025    6.850  3337.731  3.652E+11  3.652E+11
  18    0.875  119.875    6.850  3306.888  3.551E+11  3.551E+11
  19    0.925  126.725    6.850  2779.684  2.872E+11  2.872E+11
  20    0.975  133.575    6.850  2692.684  2.610E+11  2.610E+11


Interpolated blade 1 properties:

Node  BlFract   RNodes  DRNodes PitchAxis  StrcTwst  BMassDen    FlpStff    EdgStff
 (-)      (-)      (m)      (m)       (-)     (deg)    (kg/m)     (Nm^2)     (Nm^2)
   1    0.010    4.000    2.000     0.494    19.622  2603.003  9.299E+10  9.325E+10
   2    0.030    6.000    2.000     0.483    18.863  2306.971  8.263E+10  8.339E+10
   3    0.050    8.000    2.000     0.468    18.038  2016.119  6.898E+10  7.262E+10
   4    0.070   10.000    2.000     0.453    17.190  1733.329  5.458E+10  6.177E+10
   5    0.090   12.000    2.000     0.434    16.271  1570.875  4.358E+10  5.416E+10
   6    0.110   14.000    2.000     0.416    15.330  1385.004  3.336E+10  4.642E+10
   7    0.130   16.000    2.000     0.398    14.345  1151.066  2.475E+10  3.839E+10
   8    0.150   17.999    2.000     0.380    13.197   957.769  1.849E+10  3.248E+10
   9    0.170   19.999    2.000     0.363    11.942   791.180  1.377E+10  2.795E+10
  10    0.190   21.999    2.000     0.349    10.383   706.354  1.160E+10  2.553E+10
  11    0.210   23.999    2.000     0.335     8.804   641.338  9.893E+09  2.375E+10
  12    0.230   25.999    2.000     0.324     7.345   623.073  8.846E+09  2.387E+10
  13    0.250   27.999    2.000     0.314     6.159   613.433  7.945E+09  2.476E+10
  14    0.270   29.999    2.000     0.307     5.334   615.177  7.240E+09  2.665E+10
  15    0.290   31.999    2.000     0.301     5.058   616.295  6.697E+09  2.710E+10
  16    0.310   33.999    2.000     0.296     5.009   617.154  6.221E+09  2.694E+10
  17    0.330   35.999    2.000     0.292     5.010   618.716  5.777E+09  2.682E+10
  18    0.350   37.999    2.000     0.288     5.012   618.497  5.326E+09  2.653E+10
  19    0.370   39.999    2.000     0.286     5.015   613.138  4.851E+09  2.571E+10
  20    0.390   41.999    2.000     0.284     5.017   603.866  4.397E+09  2.462E+10
  21    0.410   43.998    2.000     0.283     5.019   591.187  3.961E+09  2.328E+10
  22    0.430   45.998    2.000     0.282     4.990   577.055  3.584E+09  2.200E+10
  23    0.450   47.998    2.000     0.282     4.938   562.857  3.224E+09  2.071E+10
  24    0.470   49.998    2.000     0.282     4.731   551.565  2.881E+09  1.932E+10
  25    0.490   51.998    2.000     0.282     4.486   538.079  2.549E+09  1.771E+10
  26    0.510   53.998    2.000     0.283     4.175   520.726  2.237E+09  1.569E+10
  27    0.530   55.998    2.000     0.284     3.855   505.257  1.952E+09  1.419E+10
  28    0.550   57.998    2.000     0.285     3.530   490.858  1.683E+09  1.298E+10
  29    0.570   59.998    2.000     0.285     3.266   469.184  1.456E+09  1.141E+10
  30    0.590   61.998    2.000     0.286     3.015   447.893  1.241E+09  9.938E+09
  31    0.610   63.998    2.000     0.286     2.799   431.173  1.063E+09  9.008E+09
  32    0.630   65.998    2.000     0.287     2.584   410.041  8.982E+08  7.889E+09
  33    0.650   67.998    2.000     0.288     2.369   383.842  7.492E+08  6.552E+09
  34    0.670   69.997    2.000     0.290     2.120   364.312  6.261E+08  5.660E+09
  35    0.690   71.997    2.000     0.291     1.858   346.926  5.124E+08  4.919E+09
  36    0.710   73.997    2.000     0.294     1.560   319.172  4.153E+08  4.005E+09
  37    0.730   75.997    2.000     0.296     1.215   290.578  3.228E+08  3.174E+09
  38    0.750   77.997    2.000     0.298     0.753   259.955  2.412E+08  2.547E+09
  39    0.770   79.997    2.000     0.301     0.213   244.195  1.947E+08  2.117E+09
  40    0.790   81.997    2.000     0.303    -0.327   228.435  1.483E+08  1.687E+09
  41    0.810   83.997    2.000     0.306    -0.885   208.647  1.145E+08  1.283E+09
  42    0.830   85.997    2.000     0.308    -1.436   187.240  8.405E+07  8.918E+08
  43    0.850   87.997    2.000     0.311    -1.910   159.431  6.104E+07  5.485E+08
  44    0.870   89.997    2.000     0.314    -2.357   133.791  4.153E+07  3.032E+08
  45    0.890   91.997    2.000     0.318    -2.760   111.452  2.733E+07  2.067E+08
  46    0.910   93.997    2.000     0.321    -3.151    87.980  1.620E+07  1.284E+08
  47    0.930   95.997    2.000     0.324    -3.529    63.375  8.128E+06  6.825E+07
  48    0.950   97.996    2.000     0.328    -3.877    33.265  3.616E+06  3.396E+07
  49    0.970   99.996    2.000     0.332    -4.215     9.021  2.395E+05  7.522E+06
  50    0.990  101.996    2.000     0.338    -4.524     6.121  1.233E+05  3.392E+06


Interpolated blade 2 properties:

Node  BlFract   RNodes  DRNodes PitchAxis  StrcTwst  BMassDen    FlpStff    EdgStff
 (-)      (-)      (m)      (m)       (-)     (deg)    (kg/m)     (Nm^2)     (Nm^2)
   1    0.010    4.000    2.000     0.494    19.622  2603.003  9.299E+10  9.325E+10
   2    0.030    6.000    2.000     0.483    18.863  2306.971  8.263E+10  8.339E+10
   3    0.050    8.000    2.000     0.468    18.038  2016.119  6.898E+10  7.262E+10
   4    0.070   10.000    2.000     0.453    17.190  1733.329  5.458E+10  6.177E+10
   5    0.090   12.000    2.000     0.434    16.271  1570.875  4.358E+10  5.416E+10
   6    0.110   14.000    2.000     0.416    15.330  1385.004  3.336E+10  4.642E+10
   7    0.130   16.000    2.000     0.398    14.345  1151.066  2.475E+10  3.839E+10
   8    0.150   17.999    2.000     0.380    13.197   957.769  1.849E+10  3.248E+10
   9    0.170   19.999    2.000     0.363    11.942   791.180  1.377E+10  2.795E+10
  10    0.190   21.999    2.000     0.349    10.383   706.354  1.160E+10  2.553E+10
  11    0.210   23.999    2.000     0.335     8.804   641.338  9.893E+09  2.375E+10
  12    0.230   25.999    2.000     0.324     7.345   623.073  8.846E+09  2.387E+10
  13    0.250   27.999    2.000     0.314     6.159   613.433  7.945E+09  2.476E+10
  14    0.270   29.999    2.000     0.307     5.334   615.177  7.240E+09  2.665E+10
  15    0.290   31.999    2.000     0.301     5.058   616.295  6.697E+09  2.710E+10
  16    0.310   33.999    2.000     0.296     5.009   617.154  6.221E+09  2.694E+10
  17    0.330   35.999    2.000     0.292     5.010   618.716  5.777E+09  2.682E+10
  18    0.350   37.999    2.000     0.288     5.012   618.497  5.326E+09  2.653E+10
  19    0.370   39.999    2.000     0.286     5.015   613.138  4.851E+09  2.571E+10
  20    0.390   41.999    2.000     0.284     5.017   603.866  4.397E+09  2.462E+10
  21    0.410   43.998    2.000     0.283     5.019   591.187  3.961E+09  2.328E+10
  22    0.430   45.998    2.000     0.282     4.990   577.055  3.584E+09  2.200E+10
  23    0.450   47.998    2.000     0.282     4.938   562.857  3.224E+09  2.071E+10
  24    0.470   49.998    2.000     0.282     4.731   551.565  2.881E+09  1.932E+10
  25    0.490   51.998    2.000     0.282     4.486   538.079  2.549E+09  1.771E+10
  26    0.510   53.998    2.000     0.283     4.175   520.726  2.237E+09  1.569E+10
  27    0.530   55.998    2.000     0.284     3.855   505.257  1.952E+09  1.419E+10
  28    0.550   57.998    2.000     0.285     3.530   490.858  1.683E+09  1.298E+10
  29    0.570   59.998    2.000     0.285     3.266   469.184  1.456E+09  1.141E+10
  30    0.590   61.998    2.000     0.286     3.015   447.893  1.241E+09  9.938E+09
  31    0.610   63.998    2.000     0.286     2.799   431.173  1.063E+09  9.008E+09
  32    0.630   65.998    2.000     0.287     2.584   410.041  8.982E+08  7.889E+09
  33    0.650   67.998    2.000     0.288     2.369   383.842  7.492E+08  6.552E+09
  34    0.670   69.997    2.000     0.290     2.120   364.312  6.261E+08  5.660E+09
  35    0.690   71.997    2.000     0.291     1.858   346.926  5.124E+08  4.919E+09
  36    0.710   73.997    2.000     0.294     1.560   319.172  4.153E+08  4.005E+09
  37    0.730   75.997    2.000     0.296     1.215   290.578  3.228E+08  3.174E+09
  38    0.750   77.997    2.000     0.298     0.753   259.955  2.412E+08  2.547E+09
  39    0.770   79.997    2.000     0.301     0.213   244.195  1.947E+08  2.117E+09
  40    0.790   81.997    2.000     0.303    -0.327   228.435  1.483E+08  1.687E+09
  41    0.810   83.997    2.000     0.306    -0.885   208.647  1.145E+08  1.283E+09
  42    0.830   85.997    2.000     0.308    -1.436   187.240  8.405E+07  8.918E+08
  43    0.850   87.997    2.000     0.311    -1.910   159.431  6.104E+07  5.485E+08
  44    0.870   89.997    2.000     0.314    -2.357   133.791  4.153E+07  3.032E+08
  45    0.890   91.997    2.000     0.318    -2.760   111.452  2.733E+07  2.067E+08
  46    0.910   93.997    2.000     0.321    -3.151    87.980  1.620E+07  1.284E+08
  47    0.930   95.997    2.000     0.324    -3.529    63.375  8.128E+06  6.825E+07
  48    0.950   97.996    2.000     0.328    -3.877    33.265  3.616E+06  3.396E+07
  49    0.970   99.996    2.000     0.332    -4.215     9.021  2.395E+05  7.522E+06
  50    0.990  101.996    2.000     0.338    -4.524     6.121  1.233E+05  3.392E+06


Interpolated blade 3 properties:

Node  BlFract   RNodes  DRNodes PitchAxis  StrcTwst  BMassDen    FlpStff    EdgStff
 (-)      (-)      (m)      (m)       (-)     (deg)    (kg/m)     (Nm^2)     (Nm^2)
   1    0.010    4.000    2.000     0.494    19.622  2603.003  9.299E+10  9.325E+10
   2    0.030    6.000    2.000     0.483    18.863  2306.971  8.263E+10  8.339E+10
   3    0.050    8.000    2.000     0.468    18.038  2016.119  6.898E+10  7.262E+10
   4    0.070   10.000    2.000     0.453    17.190  1733.329  5.458E+10  6.177E+10
   5    0.090   12.000    2.000     0.434    16.271  1570.875  4.358E+10  5.416E+10
   6    0.110   14.000    2.000     0.416    15.330  1385.004  3.336E+10  4.642E+10
   7    0.130   16.000    2.000     0.398    14.345  1151.066  2.475E+10  3.839E+10
   8    0.150   17.999    2.000     0.380    13.197   957.769  1.849E+10  3.248E+10
   9    0.170   19.999    2.000     0.363    11.942   791.180  1.377E+10  2.795E+10
  10    0.190   21.999    2.000     0.349    10.383   706.354  1.160E+10  2.553E+10
  11    0.210   23.999    2.000     0.335     8.804   641.338  9.893E+09  2.375E+10
  12    0.230   25.999    2.000     0.324     7.345   623.073  8.846E+09  2.387E+10
  13    0.250   27.999    2.000     0.314     6.159   613.433  7.945E+09  2.476E+10
  14    0.270   29.999    2.000     0.307     5.334   615.177  7.240E+09  2.665E+10
  15    0.290   31.999    2.000     0.301     5.058   616.295  6.697E+09  2.710E+10
  16    0.310   33.999    2.000     0.296     5.009   617.154  6.221E+09  2.694E+10
  17    0.330   35.999    2.000     0.292     5.010   618.716  5.777E+09  2.682E+10
  18    0.350   37.999    2.000     0.288     5.012   618.497  5.326E+09  2.653E+10
  19    0.370   39.999    2.000     0.286     5.015   613.138  4.851E+09  2.571E+10
  20    0.390   41.999    2.000     0.284     5.017   603.866  4.397E+09  2.462E+10
  21    0.410   43.998    2.000     0.283     5.019   591.187  3.961E+09  2.328E+10
  22    0.430   45.998    2.000     0.282     4.990   577.055  3.584E+09  2.200E+10
  23    0.450   47.998    2.000     0.282     4.938   562.857  3.224E+09  2.071E+10
  24    0.470   49.998    2.000     0.282     4.731   551.565  2.881E+09  1.932E+10
  25    0.490   51.998    2.000     0.282     4.486   538.079  2.549E+09  1.771E+10
  26    0.510   53.998    2.000     0.283     4.175   520.726  2.237E+09  1.569E+10
  27    0.530   55.998    2.000     0.284     3.855   505.257  1.952E+09  1.419E+10
  28    0.550   57.998    2.000     0.285     3.530   490.858  1.683E+09  1.298E+10
  29    0.570   59.998    2.000     0.285     3.266   469.184  1.456E+09  1.141E+10
  30    0.590   61.998    2.000     0.286     3.015   447.893  1.241E+09  9.938E+09
  31    0.610   63.998    2.000     0.286     2.799   431.173  1.063E+09  9.008E+09
  32    0.630   65.998    2.000     0.287     2.584   410.041  8.982E+08  7.889E+09
  33    0.650   67.998    2.000     0.288     2.369   383.842  7.492E+08  6.552E+09
  34    0.670   69.997    2.000     0.290     2.120   364.312  6.261E+08  5.660E+09
  35    0.690   71.997    2.000     0.291     1.858   346.926  5.124E+08  4.919E+09
  36    0.710   73.997    2.000     0.294     1.560   319.172  4.153E+08  4.005E+09
  37    0.730   75.997    2.000     0.296     1.215   290.578  3.228E+08  3.174E+09
  38    0.750   77.997    2.000     0.298     0.753   259.955  2.412E+08  2.547E+09
  39    0.770   79.997    2.000     0.301     0.213   244.195  1.947E+08  2.117E+09
  40    0.790   81.997    2.000     0.303    -0.327   228.435  1.483E+08  1.687E+09
  41    0.810   83.997    2.000     0.306    -0.885   208.647  1.145E+08  1.283E+09
  42    0.830   85.997    2.000     0.308    -1.436   187.240  8.405E+07  8.918E+08
  43    0.850   87.997    2.000     0.311    -1.910   159.431  6.104E+07  5.485E+08
  44    0.870   89.997    2.000     0.314    -2.357   133.791  4.153E+07  3.032E+08
  45    0.890   91.997    2.000     0.318    -2.760   111.452  2.733E+07  2.067E+08
  46    0.910   93.997    2.000     0.321    -3.151    87.980  1.620E+07  1.284E+08
  47    0.930   95.997    2.000     0.324    -3.529    63.375  8.128E+06  6.825E+07
  48    0.950   97.996    2.000     0.328    -3.877    33.265  3.616E+06  3.396E+07
  49    0.970   99.996    2.000     0.332    -4.215     9.021  2.395E+05  7.522E+06
  50    0.990  101.996    2.000     0.338    -4.524     6.121  1.233E+05  3.392E+06


Requested Outputs:


 Col   Parameter  Units     
 ---   ---------- ----------
   0   Time       (s)       
   1   Azimuth    (deg)     
   2   BldPitch1  (deg)     
   3   BldPitch2  (deg)     
   4   BldPitch3  (deg)     
   5   GenSpeed   (rpm)     
   6   LSSGagMya  (kN-m)    
   7   LSSGagMza  (kN-m)    
   8   LSSTipMys  (kN-m)    
   9   LSSTipMzs  (kN-m)    
  10   LSShftFys  (kN)      
  11   LSShftFzs  (kN)      
  12   LSShftPwr  (kW)      
  13   LSShftTq   (kN-m)    
  14   NacYaw     (deg)     
  15   RootFxb1   (kN)      
  16   RootFxb2   (kN)      
  17   RootFxb3   (kN)      
  18   RootFxc1   (kN)      
  19   RootFxc2   (kN)      
  20   RootFxc3   (kN)      
  21   RootFyb1   (kN)      
  22   RootFyb2   (kN)      
  23   RootFyb3   (kN)      
  24   RootFyc1   (kN)      
  25   RootFyc2   (kN)      
  26   RootFyc3   (kN)      
  27   RootFzb1   (kN)      
  28   RootFzb2   (kN)      
  29   RootFzb3   (kN)      
  30   RootFzc1   (kN)      
  31   RootFzc2   (kN)      
  32   RootFzc3   (kN)      
  33   RootMxb1   (kN-m)    
  34   RootMxb2   (kN-m)    
  35   RootMxb3   (kN-m)    
  36   RootMxc1   (kN-m)    
  37   RootMxc2   (kN-m)    
  38   RootMxc3   (kN-m)    
  39   RootMyb1   (kN-m)    
  40   RootMyb2   (kN-m)    
  41   RootMyb3   (kN-m)    
  42   RootMyc1   (kN-m)    
  43   RootMyc2   (kN-m)    
  44   RootMyc3   (kN-m)    
  45   RootMzb1   (kN-m)    
  46   RootMzb2   (kN-m)    
  47   RootMzb3   (kN-m)    
  48   RootMzc1   (kN-m)    
  49   RootMzc2   (kN-m)    
  50   RootMzc3   (kN-m)    
  51   RotPwr     (kW)      
  52   RotSpeed   (rpm)     
  53   RotThrust  (kN)      
  54   RotTorq    (kN-m)    
  55   Spn1MLxb1  (kN-m)    
  56   Spn1MLyb1  (kN-m)    
  57   Spn2MLxb1  (kN-m)    
  58   Spn2MLyb1  (kN-m)    
  59   Spn2MLzb1  (kN-m)    
  60   Spn3MLxb1  (kN-m)    
  61   Spn3MLyb1  (kN-m)    
  62   Spn4MLxb1  INVALID   
  63   Spn4MLyb1  INVALID   
  64   Spn5MLxb1  INVALID   
  65   Spn5MLyb1  INVALID   
  66   Spn6MLxb1  INVALID   
  67   Spn6MLyb1  INVALID   
  68   Spn7MLxb1  INVALID   
  69   Spn7MLyb1  INVALID   
  70   Spn8MLxb1  INVALID   
  71   Spn8MLyb1  INVALID   
  72   Spn9MLxb1  INVALID   
  73   Spn9MLyb1  INVALID   
  74   TTDspFA    (m)       
  75   TTDspSS    (m)       
  76   TTDspTwst  (deg)     
  77   TipDxc1    (m)       
  78   TipDxc2    (m)       
  79   TipDxc3    (m)       
  80   TipDyc1    (m)       
  81   TipDyc2    (m)       
  82   TipDyc3    (m)       
  83   TipDzc1    (m)       
  84   TipDzc2    (m)       
  85   TipDzc3    (m)       
  86   TipRDyb1   (deg)     
  87   TipRDyb2   (deg)     
  88   TipRDyb3   (deg)     
  89   TwrBsFxt   (kN)      
  90   TwrBsFyt   (kN)      
  91   TwrBsFzt   (kN)      
  92   TwrBsMxt   (kN-m)    
  93   TwrBsMyt   (kN-m)    
  94   TwrBsMzt   (kN-m)    
  95   YawBrFxp   (kN)      
  96   YawBrFyp   (kN)      
  97   YawBrFzp   (kN)      
  98   YawBrMxp   (kN-m)    
  99   YawBrMyp   (kN-m)    
 100   YawBrMzp   (kN-m)    
