
This summary file was generated by TurbSim (v2.00.08a-bjj, 18-Jul-2017) on 24-Jul-2020 at 16:34:44.


Runtime Options:

        12  Random seed #1
    RANLUX  Type of random number generator
         F  Output binary HH turbulence parameters?
         F  Output formatted turbulence parameters?
         F  Output AeroDyn HH files?
         T  Output AeroDyn FF files?
         F  Output BLADED FF files?
         F  Output tower data?
         F  Output formatted FF files?
         F  Output coherent turbulence time step file?
         T  Clockwise rotation when looking downwind?
 0 -  NONE  IEC turbulence models scaled to exact specified standard deviation


Turbine/Model Specifications:

        25  Vertical grid-point matrix dimension
        25  Horizontal grid-point matrix dimension
     0.050  Time step [seconds]
   180.000  Analysis time [seconds]
   180.000  Usable output time [seconds]
   140.000  Hub height [m]
   266.000  Grid height [m]
   266.000  Grid width [m]
     0.000  Vertical flow angle [degrees]
     0.000  Horizontal flow angle [degrees]


Meteorological Boundary Conditions:

    IECKAI  IEC Kaimal spectral model
         1  IEC standard: IEC 61400-1 Ed. 3: 2005
         A  IEC turbulence characteristic
       NTM  IEC Normal Turbulence Model
       N/A  IEC Extreme Turbulence Model (ETM) "c" parameter [m/s]
       PL   Wind profile type
   140.000  Reference height [m]
    11.000  Reference wind speed [m/s]
       N/A  Jet height [m]
     0.200  Power law exponent
     0.030  Surface roughness length [m]


Non-IEC Meteorological Boundary Conditions:

       N/A  Site latitude [degrees]
       N/A  Gradient Richardson number
       N/A  Friction or shear velocity [m/s]
       N/A  Mixing layer depth [m]
       N/A  Mean hub u'w' Reynolds stress
       N/A  Mean hub u'v' Reynolds stress
       N/A  Mean hub v'w' Reynolds stress


Spatial Coherence Models:

   GENERAL  u-component coherence model
   GENERAL  v-component coherence model
   GENERAL  w-component coherence model
(   12.000, 0.353E-03)  u-component coherence parameters
(*********,  0.00    )  v-component coherence parameters
(*********,  0.00    )  w-component coherence parameters
     0.000  Coherence exponent


You have requested that the following file(s) be generated:

   /home/mertzb/Documents/Analysis/BAR10/temp/Testing/Testing_powercurve_NTM_U11.000000_Seed12.0.bts (AeroDyn/TurbSim full-field wind file)


Turbulence Simulation Scaling Parameter Summary:

   Turbulence model used                            =  IEC Kaimal
   Turbulence characteristic                        =  A
   IEC turbulence type                              =  Normal Turbulence Model
   IEC standard                                     =  IEC 61400-1 Ed. 3: 2005
   Mean wind speed at hub height                    =   11.000 m/s
   Expected value of turbulence intensity at 15 m/s =   16.000%
   Characteristic value of standard deviation       =    2.216 m/s
   Turbulence scale                                 =   42.000 m
   u-component integral scale                       =  340.200 m
   Coherency scale                                  =  340.200 m
   Characteristic value of hub turbulence intensity =   20.145%
   Gradient Richardson number                       =    0.000

   Wind profile type                                =  Power law
   Power law exponent                               =    0.200
   Mean shear across rotor disk                     =    0.025 (m/s)/m
   Assumed rotor diameter                           =  266.000 m
   Surface roughness length                         =    0.030 m

   Nyquist frequency of turbulent wind field        =   10.000 Hz

   Number of time steps in the FFT                  =     3600
   Number of time steps output                      =     3600
   Number of points simulated                       =      625


Mean Flow Angles:

   Vertical   =   0.0 degrees
   Horizontal =   0.0 degrees

Mean Wind Speed Profile:

   Height    Wind Speed   Horizontal Angle  Vertical Angle  U-comp (X)   V-comp (Y)   W-comp (Z)
     (m)        (m/s)         (degrees)       (degrees)       (m/s)        (m/s)        (m/s)   
   ------    ----------   ----------------  --------------  ----------   ----------   ----------
    273.0       12.57            0.00            0.00         12.57         0.00         0.00
    261.9       12.47            0.00            0.00         12.47         0.00         0.00
    250.8       12.36            0.00            0.00         12.36         0.00         0.00
    239.8       12.25            0.00            0.00         12.25         0.00         0.00
    228.7       12.13            0.00            0.00         12.13         0.00         0.00
    217.6       12.01            0.00            0.00         12.01         0.00         0.00
    206.5       11.89            0.00            0.00         11.89         0.00         0.00
    195.4       11.76            0.00            0.00         11.76         0.00         0.00
    184.3       11.62            0.00            0.00         11.62         0.00         0.00
    173.2       11.48            0.00            0.00         11.48         0.00         0.00
    162.2       11.33            0.00            0.00         11.33         0.00         0.00
    151.1       11.17            0.00            0.00         11.17         0.00         0.00
    140.0       11.00            0.00            0.00         11.00         0.00         0.00
    128.9       10.82            0.00            0.00         10.82         0.00         0.00
    117.8       10.63            0.00            0.00         10.63         0.00         0.00
    106.8       10.42            0.00            0.00         10.42         0.00         0.00
     95.7       10.19            0.00            0.00         10.19         0.00         0.00
     84.6        9.95            0.00            0.00          9.95         0.00         0.00
     73.5        9.67            0.00            0.00          9.67         0.00         0.00
     62.4        9.36            0.00            0.00          9.36         0.00         0.00
     51.3        9.00            0.00            0.00          9.00         0.00         0.00
     40.2        8.57            0.00            0.00          8.57         0.00         0.00
     29.2        8.04            0.00            0.00          8.04         0.00         0.00
     18.1        7.31            0.00            0.00          7.31         0.00         0.00
      7.0        6.04            0.00            0.00          6.04         0.00         0.00


Harvested Random Seeds after Generation of the Random Numbers:

     31359375 K 1
            0 K 2


Hub-Height Simulated Turbulence Statistical Summary:

   Type of Wind        Min (m/s)   Mean (m/s)    Max (m/s)  Sigma (m/s)       TI (%)
   ----------------    ---------   ----------    ---------  -----------       ------
   Longitudinal (u)         6.38        11.00        16.93        1.764       16.033
   Lateral (v)             -5.57        -0.00         5.96        1.665       15.139
   Vertical (w)            -3.35        -0.00         3.31        1.073        9.753
   U component              6.38        11.00        16.93        1.764       16.033
   V component             -5.57        -0.00         5.96        1.665       15.139
   W component             -3.35        -0.00         3.31        1.073        9.753
   Horizontal (U&V)         7.15        11.13        16.99        1.718       15.436
   Total                    7.20        11.18        17.00        1.716       15.338

                       Min Reynolds     Mean Reynolds    Max Reynolds    Correlation
   Product             Stress (m/s)^2   Stress (m/s)^2   Stress (m/s)^2  Coefficient
   ----------------    --------------   --------------   --------------  -----------
   u'w'                     -8.938             0.033            13.704         0.018
   u'v'                    -21.456            -0.513            12.390        -0.175
   v'w'                    -10.410            -0.027             8.097        -0.015


   Friction Velocity (Ustar)  =      0.183 m/s
   Maximum Instantaneous TKE  =     23.606 (m/s)^2
   Maximum Instantaneous CTKE =     10.742 (m/s)^2


Grid Point Variance Summary:

   Y-coord -133.00 -121.92 -110.83  -99.75  -88.67  -77.58  -66.50  -55.42  -44.33  -33.25  -22.17  -11.08    0.00   11.08   22.17   33.25   44.33   55.42   66.50   77.58   88.67   99.75  110.83  121.92  133.00

   Height   Standard deviation at grid points for the u component:
   273.00    1.312   1.588   1.563   2.010   2.044   2.191   2.152   1.973   2.110   1.755   1.632   1.551   1.487   1.536   1.674   1.915   1.891   2.042   2.085   1.668   1.634   1.658   1.737   1.838   1.809
   261.92    1.209   1.479   1.738   1.934   2.029   2.085   1.999   2.071   2.047   1.791   1.707   1.533   1.584   1.554   1.854   2.066   2.188   1.979   2.191   1.736   1.594   1.863   2.077   1.917   2.024
   250.83    1.709   1.432   1.735   1.926   1.980   1.677   1.884   1.531   1.620   1.775   1.882   1.749   1.778   1.824   1.910   2.291   2.215   2.044   1.873   1.906   1.822   2.105   1.794   1.723   1.955
   239.75    2.022   1.608   1.512   1.841   1.665   1.563   1.642   1.818   1.690   1.817   1.907   1.605   1.837   2.310   2.001   1.920   2.219   2.435   2.094   2.202   2.087   1.900   1.683   1.720   1.919
   228.67    1.866   1.604   1.364   1.684   1.507   1.639   1.700   1.656   1.880   1.978   2.134   1.917   2.213   2.305   2.274   2.201   2.283   2.261   2.203   2.259   1.827   2.029   2.015   1.801   1.815
   217.58    1.709   1.844   1.758   1.648   1.763   1.775   1.883   1.727   1.726   1.687   1.847   1.979   2.464   2.422   2.602   2.079   2.144   2.059   2.005   1.790   1.732   1.896   1.684   1.778   1.937
   206.50    1.591   1.786   1.756   1.634   1.768   1.670   1.653   1.839   1.908   1.898   1.849   2.329   2.489   2.412   2.112   2.035   1.993   2.166   1.842   1.793   1.689   1.707   1.915   1.763   2.044
   195.42    1.725   1.718   1.704   1.738   1.930   1.788   1.422   1.680   1.667   1.981   2.161   2.444   2.301   2.261   2.326   2.187   1.822   1.974   2.103   1.774   1.803   1.466   1.568   1.669   1.842
   184.33    1.510   1.727   1.767   1.576   1.872   1.758   1.603   1.690   1.538   1.926   1.973   2.075   2.184   2.314   2.333   2.111   1.655   1.768   1.735   1.676   1.519   1.441   1.373   1.521   1.951
   173.25    1.879   1.921   1.704   1.656   1.753   1.715   1.833   2.048   1.933   1.813   1.958   1.699   1.981   2.021   1.887   1.935   1.783   1.659   1.487   1.695   1.235   1.337   1.494   1.617   1.689
   162.17    2.094   1.859   1.825   1.787   1.721   1.658   1.930   1.867   1.990   1.746   1.706   1.631   1.726   1.900   2.091   1.861   1.988   1.520   1.473   1.457   1.642   1.661   1.720   1.689   1.651
   151.08    2.131   1.953   1.975   1.737   1.814   1.979   1.960   2.115   1.739   1.570   1.462   1.429   1.907   1.818   2.124   1.867   1.867   1.540   1.438   1.929   1.854   1.656   1.765   1.639   1.532
   140.00    2.195   1.926   1.938   1.918   1.679   1.844   2.011   1.906   1.819   1.795   1.399   1.683   1.764   1.894   1.807   1.942   2.196   1.827   1.844   1.920   1.802   1.679   1.564   1.515   1.268
   128.92    2.059   2.082   2.257   2.006   1.627   1.868   1.976   1.923   2.048   1.942   1.720   1.723   1.655   1.745   1.414   1.718   1.858   2.147   1.963   2.077   2.116   1.891   1.934   1.847   1.632
   117.83    2.069   2.138   2.236   1.928   1.777   1.730   1.656   1.586   1.846   1.857   1.607   1.553   1.611   1.643   1.910   1.769   1.677   2.000   1.809   1.868   1.991   1.768   1.747   1.900   1.917
   106.75    2.296   2.123   1.921   1.977   2.164   1.996   1.712   1.582   1.701   1.871   1.721   1.306   1.562   1.658   1.964   2.064   1.995   2.405   2.038   2.162   1.894   1.403   1.833   2.020   2.211
    95.67    1.991   1.990   2.159   1.956   2.132   1.931   1.716   1.760   1.789   1.902   1.668   1.520   1.519   1.861   1.835   1.996   2.119   2.208   2.217   1.890   1.738   1.571   1.686   2.101   2.272
    84.58    2.311   2.059   1.638   1.865   2.061   1.932   1.917   1.800   1.588   1.617   1.646   1.423   1.474   1.942   2.549   2.319   2.063   2.087   1.980   1.706   1.527   1.648   1.667   1.822   2.170
    73.50    2.278   1.863   1.816   1.767   1.698   1.927   1.996   1.957   1.729   1.813   1.853   1.739   1.846   2.125   2.362   2.246   2.346   2.155   2.199   2.111   1.908   1.642   1.904   1.830   2.051
    62.42    2.350   2.116   1.705   1.910   1.973   1.970   2.011   1.634   1.841   1.887   2.092   2.034   2.073   2.497   2.461   2.288   2.090   2.094   1.867   1.805   1.887   1.659   1.733   1.680   1.918
    51.33    2.306   2.010   1.732   1.968   1.989   1.807   1.867   1.677   1.529   1.829   1.848   1.946   2.286   2.495   2.570   2.273   2.247   1.924   1.812   1.950   1.884   1.862   2.007   1.863   1.769
    40.25    2.344   1.932   1.824   1.626   1.640   1.644   1.732   1.627   1.911   1.944   1.906   2.006   2.325   2.211   2.506   2.111   2.080   1.970   1.873   1.831   1.934   1.692   1.926   1.961   1.973
    29.17    1.990   2.007   2.038   1.752   1.798   1.707   1.735   1.725   1.572   1.951   2.342   1.945   2.148   2.542   2.504   2.348   2.451   2.441   1.999   2.098   1.928   1.907   1.764   1.815   1.578
    18.08    1.968   2.287   2.033   1.711   1.579   1.538   1.502   1.621   1.575   1.817   2.065   2.178   2.200   2.360   2.493   2.360   2.423   2.157   2.389   2.124   2.027   1.901   1.959   2.039   1.893
     7.00    1.902   1.864   2.072   1.872   1.667   1.290   1.442   1.689   1.790   1.955   1.918   2.038   2.118   2.004   2.145   2.270   2.179   2.323   2.097   2.084   2.074   1.603   1.903   1.695   2.032

   Height   Standard deviation at grid points for the v component:
   273.00    1.665   1.665   1.665   1.665   1.665   1.665   1.665   1.665   1.665   1.665   1.665   1.665   1.665   1.665   1.665   1.665   1.665   1.665   1.665   1.665   1.665   1.665   1.665   1.665   1.665
   261.92    1.665   1.665   1.665   1.665   1.665   1.665   1.665   1.665   1.665   1.665   1.665   1.665   1.665   1.665   1.665   1.665   1.665   1.665   1.665   1.665   1.665   1.665   1.665   1.665   1.665
   250.83    1.665   1.665   1.665   1.665   1.665   1.665   1.665   1.665   1.665   1.665   1.665   1.665   1.665   1.665   1.665   1.665   1.665   1.665   1.665   1.665   1.665   1.665   1.665   1.665   1.665
   239.75    1.665   1.665   1.665   1.665   1.665   1.665   1.665   1.665   1.665   1.665   1.665   1.665   1.665   1.665   1.665   1.665   1.665   1.665   1.665   1.665   1.665   1.665   1.665   1.665   1.665
   228.67    1.665   1.665   1.665   1.665   1.665   1.665   1.665   1.665   1.665   1.665   1.665   1.665   1.665   1.665   1.665   1.665   1.665   1.665   1.665   1.665   1.665   1.665   1.665   1.665   1.665
   217.58    1.665   1.665   1.665   1.665   1.665   1.665   1.665   1.665   1.665   1.665   1.665   1.665   1.665   1.665   1.665   1.665   1.665   1.665   1.665   1.665   1.665   1.665   1.665   1.665   1.665
   206.50    1.665   1.665   1.665   1.665   1.665   1.665   1.665   1.665   1.665   1.665   1.665   1.665   1.665   1.665   1.665   1.665   1.665   1.665   1.665   1.665   1.665   1.665   1.665   1.665   1.665
   195.42    1.665   1.665   1.665   1.665   1.665   1.665   1.665   1.665   1.665   1.665   1.665   1.665   1.665   1.665   1.665   1.665   1.665   1.665   1.665   1.665   1.665   1.665   1.665   1.665   1.665
   184.33    1.665   1.665   1.665   1.665   1.665   1.665   1.665   1.665   1.665   1.665   1.665   1.665   1.665   1.665   1.665   1.665   1.665   1.665   1.665   1.665   1.665   1.665   1.665   1.665   1.665
   173.25    1.665   1.665   1.665   1.665   1.665   1.665   1.665   1.665   1.665   1.665   1.665   1.665   1.665   1.665   1.665   1.665   1.665   1.665   1.665   1.665   1.665   1.665   1.665   1.665   1.665
   162.17    1.665   1.665   1.665   1.665   1.665   1.665   1.665   1.665   1.665   1.665   1.665   1.665   1.665   1.665   1.665   1.665   1.665   1.665   1.665   1.665   1.665   1.665   1.665   1.665   1.665
   151.08    1.665   1.665   1.665   1.665   1.665   1.665   1.665   1.665   1.665   1.665   1.665   1.665   1.665   1.665   1.665   1.665   1.665   1.665   1.665   1.665   1.665   1.665   1.665   1.665   1.665
   140.00    1.665   1.665   1.665   1.665   1.665   1.665   1.665   1.665   1.665   1.665   1.665   1.665   1.665   1.665   1.665   1.665   1.665   1.665   1.665   1.665   1.665   1.665   1.665   1.665   1.665
   128.92    1.665   1.665   1.665   1.665   1.665   1.665   1.665   1.665   1.665   1.665   1.665   1.665   1.665   1.665   1.665   1.665   1.665   1.665   1.665   1.665   1.665   1.665   1.665   1.665   1.665
   117.83    1.665   1.665   1.665   1.665   1.665   1.665   1.665   1.665   1.665   1.665   1.665   1.665   1.665   1.665   1.665   1.665   1.665   1.665   1.665   1.665   1.665   1.665   1.665   1.665   1.665
   106.75    1.665   1.665   1.665   1.665   1.665   1.665   1.665   1.665   1.665   1.665   1.665   1.665   1.665   1.665   1.665   1.665   1.665   1.665   1.665   1.665   1.665   1.665   1.665   1.665   1.665
    95.67    1.665   1.665   1.665   1.665   1.665   1.665   1.665   1.665   1.665   1.665   1.665   1.665   1.665   1.665   1.665   1.665   1.665   1.665   1.665   1.665   1.665   1.665   1.665   1.665   1.665
    84.58    1.665   1.665   1.665   1.665   1.665   1.665   1.665   1.665   1.665   1.665   1.665   1.665   1.665   1.665   1.665   1.665   1.665   1.665   1.665   1.665   1.665   1.665   1.665   1.665   1.665
    73.50    1.665   1.665   1.665   1.665   1.665   1.665   1.665   1.665   1.665   1.665   1.665   1.665   1.665   1.665   1.665   1.665   1.665   1.665   1.665   1.665   1.665   1.665   1.665   1.665   1.665
    62.42    1.665   1.665   1.665   1.665   1.665   1.665   1.665   1.665   1.665   1.665   1.665   1.665   1.665   1.665   1.665   1.665   1.665   1.665   1.665   1.665   1.665   1.665   1.665   1.665   1.665
    51.33    1.665   1.665   1.665   1.665   1.665   1.665   1.665   1.665   1.665   1.665   1.665   1.665   1.665   1.665   1.665   1.665   1.665   1.665   1.665   1.665   1.665   1.665   1.665   1.665   1.665
    40.25    1.665   1.665   1.665   1.665   1.665   1.665   1.665   1.665   1.665   1.665   1.665   1.665   1.665   1.665   1.665   1.665   1.665   1.665   1.665   1.665   1.665   1.665   1.665   1.665   1.665
    29.17    1.665   1.665   1.665   1.665   1.665   1.665   1.665   1.665   1.665   1.665   1.665   1.665   1.665   1.665   1.665   1.665   1.665   1.665   1.665   1.665   1.665   1.665   1.665   1.665   1.665
    18.08    1.665   1.665   1.665   1.665   1.665   1.665   1.665   1.665   1.665   1.665   1.665   1.665   1.665   1.665   1.665   1.665   1.665   1.665   1.665   1.665   1.665   1.665   1.665   1.665   1.665
     7.00    1.665   1.665   1.665   1.665   1.665   1.665   1.665   1.665   1.665   1.665   1.665   1.665   1.665   1.665   1.665   1.665   1.665   1.665   1.665   1.665   1.665   1.665   1.665   1.665   1.665

   Height   Standard deviation at grid points for the w component:
   273.00    1.073   1.073   1.073   1.073   1.073   1.073   1.073   1.073   1.073   1.073   1.073   1.073   1.073   1.073   1.073   1.073   1.073   1.073   1.073   1.073   1.073   1.073   1.073   1.073   1.073
   261.92    1.073   1.073   1.073   1.073   1.073   1.073   1.073   1.073   1.073   1.073   1.073   1.073   1.073   1.073   1.073   1.073   1.073   1.073   1.073   1.073   1.073   1.073   1.073   1.073   1.073
   250.83    1.073   1.073   1.073   1.073   1.073   1.073   1.073   1.073   1.073   1.073   1.073   1.073   1.073   1.073   1.073   1.073   1.073   1.073   1.073   1.073   1.073   1.073   1.073   1.073   1.073
   239.75    1.073   1.073   1.073   1.073   1.073   1.073   1.073   1.073   1.073   1.073   1.073   1.073   1.073   1.073   1.073   1.073   1.073   1.073   1.073   1.073   1.073   1.073   1.073   1.073   1.073
   228.67    1.073   1.073   1.073   1.073   1.073   1.073   1.073   1.073   1.073   1.073   1.073   1.073   1.073   1.073   1.073   1.073   1.073   1.073   1.073   1.073   1.073   1.073   1.073   1.073   1.073
   217.58    1.073   1.073   1.073   1.073   1.073   1.073   1.073   1.073   1.073   1.073   1.073   1.073   1.073   1.073   1.073   1.073   1.073   1.073   1.073   1.073   1.073   1.073   1.073   1.073   1.073
   206.50    1.073   1.073   1.073   1.073   1.073   1.073   1.073   1.073   1.073   1.073   1.073   1.073   1.073   1.073   1.073   1.073   1.073   1.073   1.073   1.073   1.073   1.073   1.073   1.073   1.073
   195.42    1.073   1.073   1.073   1.073   1.073   1.073   1.073   1.073   1.073   1.073   1.073   1.073   1.073   1.073   1.073   1.073   1.073   1.073   1.073   1.073   1.073   1.073   1.073   1.073   1.073
   184.33    1.073   1.073   1.073   1.073   1.073   1.073   1.073   1.073   1.073   1.073   1.073   1.073   1.073   1.073   1.073   1.073   1.073   1.073   1.073   1.073   1.073   1.073   1.073   1.073   1.073
   173.25    1.073   1.073   1.073   1.073   1.073   1.073   1.073   1.073   1.073   1.073   1.073   1.073   1.073   1.073   1.073   1.073   1.073   1.073   1.073   1.073   1.073   1.073   1.073   1.073   1.073
   162.17    1.073   1.073   1.073   1.073   1.073   1.073   1.073   1.073   1.073   1.073   1.073   1.073   1.073   1.073   1.073   1.073   1.073   1.073   1.073   1.073   1.073   1.073   1.073   1.073   1.073
   151.08    1.073   1.073   1.073   1.073   1.073   1.073   1.073   1.073   1.073   1.073   1.073   1.073   1.073   1.073   1.073   1.073   1.073   1.073   1.073   1.073   1.073   1.073   1.073   1.073   1.073
   140.00    1.073   1.073   1.073   1.073   1.073   1.073   1.073   1.073   1.073   1.073   1.073   1.073   1.073   1.073   1.073   1.073   1.073   1.073   1.073   1.073   1.073   1.073   1.073   1.073   1.073
   128.92    1.073   1.073   1.073   1.073   1.073   1.073   1.073   1.073   1.073   1.073   1.073   1.073   1.073   1.073   1.073   1.073   1.073   1.073   1.073   1.073   1.073   1.073   1.073   1.073   1.073
   117.83    1.073   1.073   1.073   1.073   1.073   1.073   1.073   1.073   1.073   1.073   1.073   1.073   1.073   1.073   1.073   1.073   1.073   1.073   1.073   1.073   1.073   1.073   1.073   1.073   1.073
   106.75    1.073   1.073   1.073   1.073   1.073   1.073   1.073   1.073   1.073   1.073   1.073   1.073   1.073   1.073   1.073   1.073   1.073   1.073   1.073   1.073   1.073   1.073   1.073   1.073   1.073
    95.67    1.073   1.073   1.073   1.073   1.073   1.073   1.073   1.073   1.073   1.073   1.073   1.073   1.073   1.073   1.073   1.073   1.073   1.073   1.073   1.073   1.073   1.073   1.073   1.073   1.073
    84.58    1.073   1.073   1.073   1.073   1.073   1.073   1.073   1.073   1.073   1.073   1.073   1.073   1.073   1.073   1.073   1.073   1.073   1.073   1.073   1.073   1.073   1.073   1.073   1.073   1.073
    73.50    1.073   1.073   1.073   1.073   1.073   1.073   1.073   1.073   1.073   1.073   1.073   1.073   1.073   1.073   1.073   1.073   1.073   1.073   1.073   1.073   1.073   1.073   1.073   1.073   1.073
    62.42    1.073   1.073   1.073   1.073   1.073   1.073   1.073   1.073   1.073   1.073   1.073   1.073   1.073   1.073   1.073   1.073   1.073   1.073   1.073   1.073   1.073   1.073   1.073   1.073   1.073
    51.33    1.073   1.073   1.073   1.073   1.073   1.073   1.073   1.073   1.073   1.073   1.073   1.073   1.073   1.073   1.073   1.073   1.073   1.073   1.073   1.073   1.073   1.073   1.073   1.073   1.073
    40.25    1.073   1.073   1.073   1.073   1.073   1.073   1.073   1.073   1.073   1.073   1.073   1.073   1.073   1.073   1.073   1.073   1.073   1.073   1.073   1.073   1.073   1.073   1.073   1.073   1.073
    29.17    1.073   1.073   1.073   1.073   1.073   1.073   1.073   1.073   1.073   1.073   1.073   1.073   1.073   1.073   1.073   1.073   1.073   1.073   1.073   1.073   1.073   1.073   1.073   1.073   1.073
    18.08    1.073   1.073   1.073   1.073   1.073   1.073   1.073   1.073   1.073   1.073   1.073   1.073   1.073   1.073   1.073   1.073   1.073   1.073   1.073   1.073   1.073   1.073   1.073   1.073   1.073
     7.00    1.073   1.073   1.073   1.073   1.073   1.073   1.073   1.073   1.073   1.073   1.073   1.073   1.073   1.073   1.073   1.073   1.073   1.073   1.073   1.073   1.073   1.073   1.073   1.073   1.073

   Mean standard deviation across all grid points:
      u component:    1.884 m/s
      v component:    1.665 m/s
      w component:    1.073 m/s


U-component (X) statistics from the interpolated hub point:

   Mean =  11.0000 m/s
   TI   =  16.0334 %


Processing complete.  32.406 CPU seconds used.
