
This summary file was generated by TurbSim (v2.00.08a-bjj, 18-Jul-2017) on 24-Jul-2020 at 16:44:50.


Runtime Options:

        11  Random seed #1
    RANLUX  Type of random number generator
         F  Output binary HH turbulence parameters?
         F  Output formatted turbulence parameters?
         F  Output AeroDyn HH files?
         T  Output AeroDyn FF files?
         F  Output BLADED FF files?
         F  Output tower data?
         F  Output formatted FF files?
         F  Output coherent turbulence time step file?
         T  Clockwise rotation when looking downwind?
 0 -  NONE  IEC turbulence models scaled to exact specified standard deviation


Turbine/Model Specifications:

        25  Vertical grid-point matrix dimension
        25  Horizontal grid-point matrix dimension
     0.050  Time step [seconds]
   180.000  Analysis time [seconds]
   180.000  Usable output time [seconds]
   140.000  Hub height [m]
   266.000  Grid height [m]
   266.000  Grid width [m]
     0.000  Vertical flow angle [degrees]
     0.000  Horizontal flow angle [degrees]


Meteorological Boundary Conditions:

    IECKAI  IEC Kaimal spectral model
         1  IEC standard: IEC 61400-1 Ed. 3: 2005
         A  IEC turbulence characteristic
       NTM  IEC Normal Turbulence Model
       N/A  IEC Extreme Turbulence Model (ETM) "c" parameter [m/s]
       PL   Wind profile type
   140.000  Reference height [m]
    25.000  Reference wind speed [m/s]
       N/A  Jet height [m]
     0.200  Power law exponent
     0.030  Surface roughness length [m]


Non-IEC Meteorological Boundary Conditions:

       N/A  Site latitude [degrees]
       N/A  Gradient Richardson number
       N/A  Friction or shear velocity [m/s]
       N/A  Mixing layer depth [m]
       N/A  Mean hub u'w' Reynolds stress
       N/A  Mean hub u'v' Reynolds stress
       N/A  Mean hub v'w' Reynolds stress


Spatial Coherence Models:

   GENERAL  u-component coherence model
   GENERAL  v-component coherence model
   GENERAL  w-component coherence model
(   12.000, 0.353E-03)  u-component coherence parameters
(*********,  0.00    )  v-component coherence parameters
(*********,  0.00    )  w-component coherence parameters
     0.000  Coherence exponent


You have requested that the following file(s) be generated:

   /home/mertzb/Documents/Analysis/BAR10/temp/Testing/Testing_powercurve_NTM_U25.000000_Seed11.0.bts (AeroDyn/TurbSim full-field wind file)


Turbulence Simulation Scaling Parameter Summary:

   Turbulence model used                            =  IEC Kaimal
   Turbulence characteristic                        =  A
   IEC turbulence type                              =  Normal Turbulence Model
   IEC standard                                     =  IEC 61400-1 Ed. 3: 2005
   Mean wind speed at hub height                    =   25.000 m/s
   Expected value of turbulence intensity at 15 m/s =   16.000%
   Characteristic value of standard deviation       =    3.896 m/s
   Turbulence scale                                 =   42.000 m
   u-component integral scale                       =  340.200 m
   Coherency scale                                  =  340.200 m
   Characteristic value of hub turbulence intensity =   15.584%
   Gradient Richardson number                       =    0.000

   Wind profile type                                =  Power law
   Power law exponent                               =    0.200
   Mean shear across rotor disk                     =    0.056 (m/s)/m
   Assumed rotor diameter                           =  266.000 m
   Surface roughness length                         =    0.030 m

   Nyquist frequency of turbulent wind field        =   10.000 Hz

   Number of time steps in the FFT                  =     3600
   Number of time steps output                      =     3600
   Number of points simulated                       =      625


Mean Flow Angles:

   Vertical   =   0.0 degrees
   Horizontal =   0.0 degrees

Mean Wind Speed Profile:

   Height    Wind Speed   Horizontal Angle  Vertical Angle  U-comp (X)   V-comp (Y)   W-comp (Z)
     (m)        (m/s)         (degrees)       (degrees)       (m/s)        (m/s)        (m/s)   
   ------    ----------   ----------------  --------------  ----------   ----------   ----------
    273.0       28.57            0.00            0.00         28.57         0.00         0.00
    261.9       28.34            0.00            0.00         28.34         0.00         0.00
    250.8       28.09            0.00            0.00         28.09         0.00         0.00
    239.8       27.84            0.00            0.00         27.84         0.00         0.00
    228.7       27.58            0.00            0.00         27.58         0.00         0.00
    217.6       27.30            0.00            0.00         27.30         0.00         0.00
    206.5       27.02            0.00            0.00         27.02         0.00         0.00
    195.4       26.72            0.00            0.00         26.72         0.00         0.00
    184.3       26.41            0.00            0.00         26.41         0.00         0.00
    173.2       26.09            0.00            0.00         26.09         0.00         0.00
    162.2       25.75            0.00            0.00         25.75         0.00         0.00
    151.1       25.38            0.00            0.00         25.38         0.00         0.00
    140.0       25.00            0.00            0.00         25.00         0.00         0.00
    128.9       24.59            0.00            0.00         24.59         0.00         0.00
    117.8       24.15            0.00            0.00         24.15         0.00         0.00
    106.8       23.68            0.00            0.00         23.68         0.00         0.00
     95.7       23.17            0.00            0.00         23.17         0.00         0.00
     84.6       22.60            0.00            0.00         22.60         0.00         0.00
     73.5       21.98            0.00            0.00         21.98         0.00         0.00
     62.4       21.27            0.00            0.00         21.27         0.00         0.00
     51.3       20.45            0.00            0.00         20.45         0.00         0.00
     40.2       19.48            0.00            0.00         19.48         0.00         0.00
     29.2       18.27            0.00            0.00         18.27         0.00         0.00
     18.1       16.60            0.00            0.00         16.60         0.00         0.00
      7.0       13.73            0.00            0.00         13.73         0.00         0.00


Harvested Random Seeds after Generation of the Random Numbers:

     31359375 K 1
            0 K 2


Hub-Height Simulated Turbulence Statistical Summary:

   Type of Wind        Min (m/s)   Mean (m/s)    Max (m/s)  Sigma (m/s)       TI (%)
   ----------------    ---------   ----------    ---------  -----------       ------
   Longitudinal (u)        11.77        25.00        36.87        4.278       17.112
   Lateral (v)             -9.07        -0.00         9.61        3.002       12.010
   Vertical (w)            -5.70        -0.00         7.39        1.876        7.504
   U component             11.77        25.00        36.87        4.278       17.112
   V component             -9.07        -0.00         9.61        3.002       12.010
   W component             -5.70        -0.00         7.39        1.876        7.504
   Horizontal (U&V)        12.16        25.19        36.90        4.243       16.847
   Total                   12.32        25.26        37.27        4.226       16.733

                       Min Reynolds     Mean Reynolds    Max Reynolds    Correlation
   Product             Stress (m/s)^2   Stress (m/s)^2   Stress (m/s)^2  Coefficient
   ----------------    --------------   --------------   --------------  -----------
   u'w'                    -62.808            -0.773            28.774        -0.096
   u'v'                    -79.178             0.934            64.994         0.073
   v'w'                    -34.958            -0.005            35.840        -0.001


   Friction Velocity (Ustar)  =      0.879 m/s
   Maximum Instantaneous TKE  =     99.969 (m/s)^2
   Maximum Instantaneous CTKE =     43.626 (m/s)^2


Grid Point Variance Summary:

   Y-coord -133.00 -121.92 -110.83  -99.75  -88.67  -77.58  -66.50  -55.42  -44.33  -33.25  -22.17  -11.08    0.00   11.08   22.17   33.25   44.33   55.42   66.50   77.58   88.67   99.75  110.83  121.92  133.00

   Height   Standard deviation at grid points for the u component:
   273.00    4.193   4.259   3.913   3.797   4.176   4.022   3.501   3.438   3.968   3.566   3.661   3.345   3.660   3.456   3.179   3.504   3.623   3.807   4.020   3.971   4.023   3.846   3.822   3.898   3.979
   261.92    4.441   4.194   4.135   4.114   4.457   4.454   4.121   3.686   4.371   3.807   3.428   3.331   3.563   3.378   3.322   3.503   3.727   3.881   3.827   3.871   4.255   4.045   3.847   3.760   4.034
   250.83    4.401   4.078   4.213   4.365   4.224   4.244   3.848   4.037   4.039   3.767   3.533   3.422   3.516   3.566   3.941   3.771   3.575   3.864   4.015   3.977   3.495   3.742   3.748   3.484   3.712
   239.75    4.015   3.864   4.092   3.858   3.502   3.811   3.909   3.879   3.469   3.931   3.703   3.863   3.450   3.838   4.136   4.231   3.874   4.433   3.799   3.610   3.692   3.366   3.442   3.387   3.784
   228.67    3.716   3.343   3.678   3.800   3.688   3.902   3.820   3.519   3.952   4.017   4.147   4.128   3.435   3.801   4.051   4.148   4.508   4.088   4.392   3.576   3.491   2.974   3.078   3.069   3.575
   217.58    3.613   3.692   3.683   3.678   3.742   3.810   3.211   3.564   4.053   4.143   4.161   4.011   3.819   3.695   3.841   4.114   4.213   4.077   4.167   3.895   3.408   3.006   2.836   3.243   3.235
   206.50    3.860   3.856   3.934   3.631   3.835   3.448   3.191   3.470   3.796   3.814   4.381   4.580   4.255   3.855   4.123   4.314   4.005   4.099   4.026   3.587   3.541   3.098   3.434   3.123   3.675
   195.42    3.977   3.684   3.639   3.340   3.367   3.710   3.563   4.060   3.726   4.044   4.037   4.298   4.258   3.631   4.053   4.088   4.384   3.998   3.951   3.339   3.260   3.467   3.395   3.348   3.433
   184.33    3.846   3.502   3.088   3.214   3.258   3.762   3.746   4.556   4.324   4.430   4.406   4.216   4.053   3.891   3.952   3.781   3.889   3.928   3.908   3.425   3.635   3.290   3.250   3.537   3.416
   173.25    3.676   3.411   3.464   3.105   3.574   3.601   4.233   4.735   4.605   4.379   4.403   4.337   4.151   4.393   3.915   3.845   3.763   3.931   3.799   3.582   3.606   3.683   3.335   3.552   3.721
   162.17    3.400   3.090   3.356   3.280   3.693   4.175   4.277   4.582   5.069   4.840   4.593   4.369   4.390   4.553   4.243   4.266   3.929   3.468   3.706   3.548   3.878   3.662   4.102   4.035   3.519
   151.08    3.194   3.195   3.062   3.412   3.809   4.039   4.282   4.250   4.755   5.281   5.007   4.750   4.548   4.390   4.359   4.182   3.929   3.729   3.542   3.611   3.792   3.718   3.990   3.935   3.970
   140.00    3.305   2.760   2.839   3.536   3.661   3.664   4.051   4.713   5.129   5.342   5.071   4.774   4.278   3.768   3.922   3.851   3.832   3.482   3.497   3.338   3.790   3.936   3.871   4.203   4.044
   128.92    3.036   2.950   3.028   3.588   4.077   4.026   4.101   4.408   4.860   4.971   5.171   4.604   4.056   3.885   3.681   3.650   3.188   3.629   3.550   3.622   3.751   3.976   3.954   3.929   4.066
   117.83    3.072   3.036   3.281   3.471   3.732   4.141   4.186   3.969   4.433   4.768   5.059   4.671   3.919   3.811   3.389   3.389   3.363   3.750   3.486   3.593   3.552   3.978   3.762   3.987   3.810
   106.75    3.617   3.545   3.335   3.623   3.658   3.654   3.994   4.080   4.049   4.341   4.388   4.265   3.954   3.868   3.303   3.370   3.362   3.434   3.487   3.792   3.834   3.899   3.539   3.594   3.702
    95.67    3.716   3.506   3.891   3.578   3.703   3.730   3.793   3.603   3.728   3.639   3.839   3.568   3.440   3.288   3.467   3.609   3.589   3.505   3.214   3.441   3.956   3.730   3.920   3.915   3.695
    84.58    3.525   3.773   3.811   3.670   3.487   3.566   3.293   3.511   3.569   3.502   3.289   3.455   3.501   3.392   3.858   3.858   3.113   3.228   3.302   3.461   3.817   3.992   3.860   4.008   3.912
    73.50    4.000   3.862   3.847   3.504   3.856   3.899   3.644   3.285   3.570   3.592   3.603   3.903   3.419   3.333   3.584   3.721   3.478   3.714   3.771   3.568   3.694   3.971   3.728   3.952   4.101
    62.42    3.956   3.798   3.765   3.823   4.138   3.821   4.005   3.835   3.903   4.120   3.913   3.596   3.619   3.108   3.468   3.444   3.364   3.781   4.093   3.983   4.033   3.937   3.605   3.449   3.791
    51.33    3.808   4.040   3.920   3.548   4.154   4.145   4.083   3.621   3.902   3.835   3.601   3.554   2.992   2.867   3.498   3.583   3.500   3.606   3.732   3.996   3.883   3.791   3.462   3.492   3.453
    40.25    3.906   3.660   3.808   4.057   3.840   4.204   4.139   3.988   3.873   3.736   4.021   3.535   3.177   3.159   3.575   3.865   3.739   4.281   3.780   3.612   4.113   3.655   3.418   3.433   3.304
    29.17    3.884   3.527   3.441   3.874   4.064   3.902   4.025   4.035   3.798   3.763   3.529   3.585   3.536   3.075   3.661   3.484   3.570   4.064   3.675   3.729   3.516   3.858   3.565   3.351   3.211
    18.08    3.802   3.523   3.738   4.124   4.245   4.429   3.987   3.994   4.064   4.254   3.819   3.594   3.312   3.478   3.526   3.655   3.997   3.758   3.667   3.719   3.354   3.376   3.183   3.434   3.211
     7.00    3.604   3.185   3.542   3.998   4.273   4.628   4.651   4.436   4.219   4.255   4.400   3.690   3.090   3.440   3.417   3.205   3.420   3.381   3.183   3.610   3.237   3.248   2.978   3.259   3.243

   Height   Standard deviation at grid points for the v component:
   273.00    3.002   3.002   3.002   3.002   3.002   3.002   3.002   3.002   3.002   3.002   3.002   3.002   3.002   3.002   3.002   3.002   3.002   3.002   3.002   3.002   3.002   3.002   3.002   3.002   3.002
   261.92    3.002   3.002   3.002   3.002   3.002   3.002   3.002   3.002   3.002   3.002   3.002   3.002   3.002   3.002   3.002   3.002   3.002   3.002   3.002   3.002   3.002   3.002   3.002   3.002   3.002
   250.83    3.002   3.002   3.002   3.002   3.002   3.002   3.002   3.002   3.002   3.002   3.002   3.002   3.002   3.002   3.002   3.002   3.002   3.002   3.002   3.002   3.002   3.002   3.002   3.002   3.002
   239.75    3.002   3.002   3.002   3.002   3.002   3.002   3.002   3.002   3.002   3.002   3.002   3.002   3.002   3.002   3.002   3.002   3.002   3.002   3.002   3.002   3.002   3.002   3.002   3.002   3.002
   228.67    3.002   3.002   3.002   3.002   3.002   3.002   3.002   3.002   3.002   3.002   3.002   3.002   3.002   3.002   3.002   3.002   3.002   3.002   3.002   3.002   3.002   3.002   3.002   3.002   3.002
   217.58    3.002   3.002   3.002   3.002   3.002   3.002   3.002   3.002   3.002   3.002   3.002   3.002   3.002   3.002   3.002   3.002   3.002   3.002   3.002   3.002   3.002   3.002   3.002   3.002   3.002
   206.50    3.002   3.002   3.002   3.002   3.002   3.002   3.002   3.002   3.002   3.002   3.002   3.002   3.002   3.002   3.002   3.002   3.002   3.002   3.002   3.002   3.002   3.002   3.002   3.002   3.002
   195.42    3.002   3.002   3.002   3.002   3.002   3.002   3.002   3.002   3.002   3.002   3.002   3.002   3.002   3.002   3.002   3.002   3.002   3.002   3.002   3.002   3.002   3.002   3.002   3.002   3.002
   184.33    3.002   3.002   3.002   3.002   3.002   3.002   3.002   3.002   3.002   3.002   3.002   3.002   3.002   3.002   3.002   3.002   3.002   3.002   3.002   3.002   3.002   3.002   3.002   3.002   3.002
   173.25    3.002   3.002   3.002   3.002   3.002   3.002   3.002   3.002   3.002   3.002   3.002   3.002   3.002   3.002   3.002   3.002   3.002   3.002   3.002   3.002   3.002   3.002   3.002   3.002   3.002
   162.17    3.002   3.002   3.002   3.002   3.002   3.002   3.002   3.002   3.002   3.002   3.002   3.002   3.002   3.002   3.002   3.002   3.002   3.002   3.002   3.002   3.002   3.002   3.002   3.002   3.002
   151.08    3.002   3.002   3.002   3.002   3.002   3.002   3.002   3.002   3.002   3.002   3.002   3.002   3.002   3.002   3.002   3.002   3.002   3.002   3.002   3.002   3.002   3.002   3.002   3.002   3.002
   140.00    3.002   3.002   3.002   3.002   3.002   3.002   3.002   3.002   3.002   3.002   3.002   3.002   3.002   3.002   3.002   3.002   3.002   3.002   3.002   3.002   3.002   3.002   3.002   3.002   3.002
   128.92    3.002   3.002   3.002   3.002   3.002   3.002   3.002   3.002   3.002   3.002   3.002   3.002   3.002   3.002   3.002   3.002   3.002   3.002   3.002   3.002   3.002   3.002   3.002   3.002   3.002
   117.83    3.002   3.002   3.002   3.002   3.002   3.002   3.002   3.002   3.002   3.002   3.002   3.002   3.002   3.002   3.002   3.002   3.002   3.002   3.002   3.002   3.002   3.002   3.002   3.002   3.002
   106.75    3.002   3.002   3.002   3.002   3.002   3.002   3.002   3.002   3.002   3.002   3.002   3.002   3.002   3.002   3.002   3.002   3.002   3.002   3.002   3.002   3.002   3.002   3.002   3.002   3.002
    95.67    3.002   3.002   3.002   3.002   3.002   3.002   3.002   3.002   3.002   3.002   3.002   3.002   3.002   3.002   3.002   3.002   3.002   3.002   3.002   3.002   3.002   3.002   3.002   3.002   3.002
    84.58    3.002   3.002   3.002   3.002   3.002   3.002   3.002   3.002   3.002   3.002   3.002   3.002   3.002   3.002   3.002   3.002   3.002   3.002   3.002   3.002   3.002   3.002   3.002   3.002   3.002
    73.50    3.002   3.002   3.002   3.002   3.002   3.002   3.002   3.002   3.002   3.002   3.002   3.002   3.002   3.002   3.002   3.002   3.002   3.002   3.002   3.002   3.002   3.002   3.002   3.002   3.002
    62.42    3.002   3.002   3.002   3.002   3.002   3.002   3.002   3.002   3.002   3.002   3.002   3.002   3.002   3.002   3.002   3.002   3.002   3.002   3.002   3.002   3.002   3.002   3.002   3.002   3.002
    51.33    3.002   3.002   3.002   3.002   3.002   3.002   3.002   3.002   3.002   3.002   3.002   3.002   3.002   3.002   3.002   3.002   3.002   3.002   3.002   3.002   3.002   3.002   3.002   3.002   3.002
    40.25    3.002   3.002   3.002   3.002   3.002   3.002   3.002   3.002   3.002   3.002   3.002   3.002   3.002   3.002   3.002   3.002   3.002   3.002   3.002   3.002   3.002   3.002   3.002   3.002   3.002
    29.17    3.002   3.002   3.002   3.002   3.002   3.002   3.002   3.002   3.002   3.002   3.002   3.002   3.002   3.002   3.002   3.002   3.002   3.002   3.002   3.002   3.002   3.002   3.002   3.002   3.002
    18.08    3.002   3.002   3.002   3.002   3.002   3.002   3.002   3.002   3.002   3.002   3.002   3.002   3.002   3.002   3.002   3.002   3.002   3.002   3.002   3.002   3.002   3.002   3.002   3.002   3.002
     7.00    3.002   3.002   3.002   3.002   3.002   3.002   3.002   3.002   3.002   3.002   3.002   3.002   3.002   3.002   3.002   3.002   3.002   3.002   3.002   3.002   3.002   3.002   3.002   3.002   3.002

   Height   Standard deviation at grid points for the w component:
   273.00    1.876   1.876   1.876   1.876   1.876   1.876   1.876   1.876   1.876   1.876   1.876   1.876   1.876   1.876   1.876   1.876   1.876   1.876   1.876   1.876   1.876   1.876   1.876   1.876   1.876
   261.92    1.876   1.876   1.876   1.876   1.876   1.876   1.876   1.876   1.876   1.876   1.876   1.876   1.876   1.876   1.876   1.876   1.876   1.876   1.876   1.876   1.876   1.876   1.876   1.876   1.876
   250.83    1.876   1.876   1.876   1.876   1.876   1.876   1.876   1.876   1.876   1.876   1.876   1.876   1.876   1.876   1.876   1.876   1.876   1.876   1.876   1.876   1.876   1.876   1.876   1.876   1.876
   239.75    1.876   1.876   1.876   1.876   1.876   1.876   1.876   1.876   1.876   1.876   1.876   1.876   1.876   1.876   1.876   1.876   1.876   1.876   1.876   1.876   1.876   1.876   1.876   1.876   1.876
   228.67    1.876   1.876   1.876   1.876   1.876   1.876   1.876   1.876   1.876   1.876   1.876   1.876   1.876   1.876   1.876   1.876   1.876   1.876   1.876   1.876   1.876   1.876   1.876   1.876   1.876
   217.58    1.876   1.876   1.876   1.876   1.876   1.876   1.876   1.876   1.876   1.876   1.876   1.876   1.876   1.876   1.876   1.876   1.876   1.876   1.876   1.876   1.876   1.876   1.876   1.876   1.876
   206.50    1.876   1.876   1.876   1.876   1.876   1.876   1.876   1.876   1.876   1.876   1.876   1.876   1.876   1.876   1.876   1.876   1.876   1.876   1.876   1.876   1.876   1.876   1.876   1.876   1.876
   195.42    1.876   1.876   1.876   1.876   1.876   1.876   1.876   1.876   1.876   1.876   1.876   1.876   1.876   1.876   1.876   1.876   1.876   1.876   1.876   1.876   1.876   1.876   1.876   1.876   1.876
   184.33    1.876   1.876   1.876   1.876   1.876   1.876   1.876   1.876   1.876   1.876   1.876   1.876   1.876   1.876   1.876   1.876   1.876   1.876   1.876   1.876   1.876   1.876   1.876   1.876   1.876
   173.25    1.876   1.876   1.876   1.876   1.876   1.876   1.876   1.876   1.876   1.876   1.876   1.876   1.876   1.876   1.876   1.876   1.876   1.876   1.876   1.876   1.876   1.876   1.876   1.876   1.876
   162.17    1.876   1.876   1.876   1.876   1.876   1.876   1.876   1.876   1.876   1.876   1.876   1.876   1.876   1.876   1.876   1.876   1.876   1.876   1.876   1.876   1.876   1.876   1.876   1.876   1.876
   151.08    1.876   1.876   1.876   1.876   1.876   1.876   1.876   1.876   1.876   1.876   1.876   1.876   1.876   1.876   1.876   1.876   1.876   1.876   1.876   1.876   1.876   1.876   1.876   1.876   1.876
   140.00    1.876   1.876   1.876   1.876   1.876   1.876   1.876   1.876   1.876   1.876   1.876   1.876   1.876   1.876   1.876   1.876   1.876   1.876   1.876   1.876   1.876   1.876   1.876   1.876   1.876
   128.92    1.876   1.876   1.876   1.876   1.876   1.876   1.876   1.876   1.876   1.876   1.876   1.876   1.876   1.876   1.876   1.876   1.876   1.876   1.876   1.876   1.876   1.876   1.876   1.876   1.876
   117.83    1.876   1.876   1.876   1.876   1.876   1.876   1.876   1.876   1.876   1.876   1.876   1.876   1.876   1.876   1.876   1.876   1.876   1.876   1.876   1.876   1.876   1.876   1.876   1.876   1.876
   106.75    1.876   1.876   1.876   1.876   1.876   1.876   1.876   1.876   1.876   1.876   1.876   1.876   1.876   1.876   1.876   1.876   1.876   1.876   1.876   1.876   1.876   1.876   1.876   1.876   1.876
    95.67    1.876   1.876   1.876   1.876   1.876   1.876   1.876   1.876   1.876   1.876   1.876   1.876   1.876   1.876   1.876   1.876   1.876   1.876   1.876   1.876   1.876   1.876   1.876   1.876   1.876
    84.58    1.876   1.876   1.876   1.876   1.876   1.876   1.876   1.876   1.876   1.876   1.876   1.876   1.876   1.876   1.876   1.876   1.876   1.876   1.876   1.876   1.876   1.876   1.876   1.876   1.876
    73.50    1.876   1.876   1.876   1.876   1.876   1.876   1.876   1.876   1.876   1.876   1.876   1.876   1.876   1.876   1.876   1.876   1.876   1.876   1.876   1.876   1.876   1.876   1.876   1.876   1.876
    62.42    1.876   1.876   1.876   1.876   1.876   1.876   1.876   1.876   1.876   1.876   1.876   1.876   1.876   1.876   1.876   1.876   1.876   1.876   1.876   1.876   1.876   1.876   1.876   1.876   1.876
    51.33    1.876   1.876   1.876   1.876   1.876   1.876   1.876   1.876   1.876   1.876   1.876   1.876   1.876   1.876   1.876   1.876   1.876   1.876   1.876   1.876   1.876   1.876   1.876   1.876   1.876
    40.25    1.876   1.876   1.876   1.876   1.876   1.876   1.876   1.876   1.876   1.876   1.876   1.876   1.876   1.876   1.876   1.876   1.876   1.876   1.876   1.876   1.876   1.876   1.876   1.876   1.876
    29.17    1.876   1.876   1.876   1.876   1.876   1.876   1.876   1.876   1.876   1.876   1.876   1.876   1.876   1.876   1.876   1.876   1.876   1.876   1.876   1.876   1.876   1.876   1.876   1.876   1.876
    18.08    1.876   1.876   1.876   1.876   1.876   1.876   1.876   1.876   1.876   1.876   1.876   1.876   1.876   1.876   1.876   1.876   1.876   1.876   1.876   1.876   1.876   1.876   1.876   1.876   1.876
     7.00    1.876   1.876   1.876   1.876   1.876   1.876   1.876   1.876   1.876   1.876   1.876   1.876   1.876   1.876   1.876   1.876   1.876   1.876   1.876   1.876   1.876   1.876   1.876   1.876   1.876

   Mean standard deviation across all grid points:
      u component:    3.788 m/s
      v component:    3.002 m/s
      w component:    1.876 m/s


U-component (X) statistics from the interpolated hub point:

   Mean =  25.0000 m/s
   TI   =  17.1125 %


Processing complete.  63.048 CPU seconds used.
