
This summary file was generated by TurbSim (v2.00.08a-bjj, 18-Jul-2017) on 24-Jul-2020 at 16:34:12.


Runtime Options:

        11  Random seed #1
    RANLUX  Type of random number generator
         F  Output binary HH turbulence parameters?
         F  Output formatted turbulence parameters?
         F  Output AeroDyn HH files?
         T  Output AeroDyn FF files?
         F  Output BLADED FF files?
         F  Output tower data?
         F  Output formatted FF files?
         F  Output coherent turbulence time step file?
         T  Clockwise rotation when looking downwind?
 0 -  NONE  IEC turbulence models scaled to exact specified standard deviation


Turbine/Model Specifications:

        25  Vertical grid-point matrix dimension
        25  Horizontal grid-point matrix dimension
     0.050  Time step [seconds]
   180.000  Analysis time [seconds]
   180.000  Usable output time [seconds]
   140.000  Hub height [m]
   266.000  Grid height [m]
   266.000  Grid width [m]
     0.000  Vertical flow angle [degrees]
     0.000  Horizontal flow angle [degrees]


Meteorological Boundary Conditions:

    IECKAI  IEC Kaimal spectral model
         1  IEC standard: IEC 61400-1 Ed. 3: 2005
         A  IEC turbulence characteristic
       NTM  IEC Normal Turbulence Model
       N/A  IEC Extreme Turbulence Model (ETM) "c" parameter [m/s]
       PL   Wind profile type
   140.000  Reference height [m]
    11.000  Reference wind speed [m/s]
       N/A  Jet height [m]
     0.200  Power law exponent
     0.030  Surface roughness length [m]


Non-IEC Meteorological Boundary Conditions:

       N/A  Site latitude [degrees]
       N/A  Gradient Richardson number
       N/A  Friction or shear velocity [m/s]
       N/A  Mixing layer depth [m]
       N/A  Mean hub u'w' Reynolds stress
       N/A  Mean hub u'v' Reynolds stress
       N/A  Mean hub v'w' Reynolds stress


Spatial Coherence Models:

   GENERAL  u-component coherence model
   GENERAL  v-component coherence model
   GENERAL  w-component coherence model
(   12.000, 0.353E-03)  u-component coherence parameters
(*********,  0.00    )  v-component coherence parameters
(*********,  0.00    )  w-component coherence parameters
     0.000  Coherence exponent


You have requested that the following file(s) be generated:

   /home/mertzb/Documents/Analysis/BAR10/temp/Testing/Testing_powercurve_NTM_U11.000000_Seed11.0.bts (AeroDyn/TurbSim full-field wind file)


Turbulence Simulation Scaling Parameter Summary:

   Turbulence model used                            =  IEC Kaimal
   Turbulence characteristic                        =  A
   IEC turbulence type                              =  Normal Turbulence Model
   IEC standard                                     =  IEC 61400-1 Ed. 3: 2005
   Mean wind speed at hub height                    =   11.000 m/s
   Expected value of turbulence intensity at 15 m/s =   16.000%
   Characteristic value of standard deviation       =    2.216 m/s
   Turbulence scale                                 =   42.000 m
   u-component integral scale                       =  340.200 m
   Coherency scale                                  =  340.200 m
   Characteristic value of hub turbulence intensity =   20.145%
   Gradient Richardson number                       =    0.000

   Wind profile type                                =  Power law
   Power law exponent                               =    0.200
   Mean shear across rotor disk                     =    0.025 (m/s)/m
   Assumed rotor diameter                           =  266.000 m
   Surface roughness length                         =    0.030 m

   Nyquist frequency of turbulent wind field        =   10.000 Hz

   Number of time steps in the FFT                  =     3600
   Number of time steps output                      =     3600
   Number of points simulated                       =      625


Mean Flow Angles:

   Vertical   =   0.0 degrees
   Horizontal =   0.0 degrees

Mean Wind Speed Profile:

   Height    Wind Speed   Horizontal Angle  Vertical Angle  U-comp (X)   V-comp (Y)   W-comp (Z)
     (m)        (m/s)         (degrees)       (degrees)       (m/s)        (m/s)        (m/s)   
   ------    ----------   ----------------  --------------  ----------   ----------   ----------
    273.0       12.57            0.00            0.00         12.57         0.00         0.00
    261.9       12.47            0.00            0.00         12.47         0.00         0.00
    250.8       12.36            0.00            0.00         12.36         0.00         0.00
    239.8       12.25            0.00            0.00         12.25         0.00         0.00
    228.7       12.13            0.00            0.00         12.13         0.00         0.00
    217.6       12.01            0.00            0.00         12.01         0.00         0.00
    206.5       11.89            0.00            0.00         11.89         0.00         0.00
    195.4       11.76            0.00            0.00         11.76         0.00         0.00
    184.3       11.62            0.00            0.00         11.62         0.00         0.00
    173.2       11.48            0.00            0.00         11.48         0.00         0.00
    162.2       11.33            0.00            0.00         11.33         0.00         0.00
    151.1       11.17            0.00            0.00         11.17         0.00         0.00
    140.0       11.00            0.00            0.00         11.00         0.00         0.00
    128.9       10.82            0.00            0.00         10.82         0.00         0.00
    117.8       10.63            0.00            0.00         10.63         0.00         0.00
    106.8       10.42            0.00            0.00         10.42         0.00         0.00
     95.7       10.19            0.00            0.00         10.19         0.00         0.00
     84.6        9.95            0.00            0.00          9.95         0.00         0.00
     73.5        9.67            0.00            0.00          9.67         0.00         0.00
     62.4        9.36            0.00            0.00          9.36         0.00         0.00
     51.3        9.00            0.00            0.00          9.00         0.00         0.00
     40.2        8.57            0.00            0.00          8.57         0.00         0.00
     29.2        8.04            0.00            0.00          8.04         0.00         0.00
     18.1        7.31            0.00            0.00          7.31         0.00         0.00
      7.0        6.04            0.00            0.00          6.04         0.00         0.00


Harvested Random Seeds after Generation of the Random Numbers:

     31359375 K 1
            0 K 2


Hub-Height Simulated Turbulence Statistical Summary:

   Type of Wind        Min (m/s)   Mean (m/s)    Max (m/s)  Sigma (m/s)       TI (%)
   ----------------    ---------   ----------    ---------  -----------       ------
   Longitudinal (u)         5.11        11.00        16.78        2.266       20.602
   Lateral (v)             -4.55        -0.00         4.93        1.665       15.139
   Vertical (w)            -3.04        -0.00         4.36        1.073        9.753
   U component              5.11        11.00        16.78        2.266       20.602
   V component             -4.55        -0.00         4.93        1.665       15.139
   W component             -3.04        -0.00         4.36        1.073        9.753
   Horizontal (U&V)         5.59        11.13        16.78        2.230       20.035
   Total                    5.66        11.19        16.83        2.215       19.795

                       Min Reynolds     Mean Reynolds    Max Reynolds    Correlation
   Product             Stress (m/s)^2   Stress (m/s)^2   Stress (m/s)^2  Coefficient
   ----------------    --------------   --------------   --------------  -----------
   u'w'                    -16.198            -0.296             7.710        -0.122
   u'v'                    -20.147             0.377            16.011         0.100
   v'w'                    -10.273            -0.032            10.591        -0.018


   Friction Velocity (Ustar)  =      0.544 m/s
   Maximum Instantaneous TKE  =     23.077 (m/s)^2
   Maximum Instantaneous CTKE =     10.978 (m/s)^2


Grid Point Variance Summary:

   Y-coord -133.00 -121.92 -110.83  -99.75  -88.67  -77.58  -66.50  -55.42  -44.33  -33.25  -22.17  -11.08    0.00   11.08   22.17   33.25   44.33   55.42   66.50   77.58   88.67   99.75  110.83  121.92  133.00

   Height   Standard deviation at grid points for the u component:
   273.00    2.241   2.257   2.022   1.963   2.367   2.249   1.885   1.842   2.130   1.952   2.015   1.708   1.981   1.847   1.541   1.809   1.876   2.013   2.101   1.999   2.096   2.057   2.008   2.010   1.996
   261.92    2.528   2.287   2.269   2.223   2.603   2.585   2.314   2.023   2.465   2.066   1.774   1.729   1.949   1.711   1.688   1.866   1.866   2.076   1.995   2.027   2.372   2.289   2.046   1.953   2.104
   250.83    2.355   2.207   2.401   2.526   2.498   2.480   2.121   2.375   2.314   1.997   1.870   1.783   1.988   1.914   2.277   2.058   1.891   2.137   2.264   2.203   1.920   2.064   2.118   1.799   1.977
   239.75    2.162   2.055   2.230   2.163   1.916   2.190   2.194   2.253   1.888   2.152   2.017   2.147   1.920   2.190   2.380   2.441   2.086   2.532   2.069   1.957   2.031   1.882   2.002   1.855   2.100
   228.67    1.887   1.636   1.914   2.043   1.949   2.133   2.050   1.979   2.283   2.216   2.251   2.262   1.713   2.131   2.336   2.417   2.694   2.295   2.497   1.899   1.898   1.573   1.682   1.699   2.015
   217.58    1.715   1.826   1.864   1.924   2.030   2.023   1.579   2.004   2.412   2.409   2.344   2.151   1.991   2.041   2.215   2.327   2.548   2.371   2.389   2.114   1.860   1.451   1.503   1.767   1.753
   206.50    1.934   2.015   2.054   1.991   2.252   1.929   1.608   1.810   2.138   2.166   2.506   2.586   2.239   2.030   2.330   2.463   2.295   2.434   2.200   1.822   1.824   1.518   1.797   1.716   1.970
   195.42    2.137   1.953   1.995   1.770   1.847   2.065   1.897   2.187   2.052   2.333   2.330   2.437   2.421   1.912   2.236   2.262   2.499   2.271   2.093   1.650   1.595   1.750   1.693   1.690   1.740
   184.33    2.095   1.853   1.679   1.576   1.765   2.073   1.987   2.578   2.487   2.575   2.512   2.396   2.306   2.114   2.142   2.034   2.127   2.122   2.100   1.671   1.848   1.561   1.539   1.749   1.700
   173.25    2.033   1.905   1.889   1.508   1.993   1.986   2.383   2.737   2.638   2.290   2.447   2.504   2.318   2.499   2.273   2.005   2.036   2.172   1.931   1.674   1.735   1.729   1.554   1.747   1.939
   162.17    1.789   1.589   1.817   1.748   1.994   2.343   2.361   2.545   2.898   2.685   2.492   2.374   2.471   2.679   2.445   2.386   2.060   1.750   1.791   1.647   1.884   1.755   2.031   2.016   1.826
   151.08    1.807   1.734   1.526   1.780   2.022   2.291   2.367   2.278   2.687   3.073   2.807   2.676   2.552   2.523   2.572   2.398   2.179   1.811   1.624   1.743   1.744   1.723   1.908   1.941   2.105
   140.00    1.804   1.429   1.404   1.832   1.888   2.000   2.196   2.710   2.970   3.129   2.810   2.618   2.266   1.908   2.183   2.160   2.053   1.685   1.619   1.510   1.788   1.892   1.927   2.190   2.067
   128.92    1.624   1.411   1.479   1.896   2.264   2.124   2.235   2.397   2.717   2.880   2.999   2.505   2.040   2.038   1.956   2.017   1.525   1.826   1.690   1.701   1.858   1.969   2.051   2.021   2.084
   117.83    1.512   1.405   1.678   1.702   1.937   2.204   2.155   2.085   2.466   2.698   2.933   2.575   1.899   1.891   1.754   1.831   1.678   1.944   1.619   1.717   1.692   1.977   1.924   2.071   1.995
   106.75    1.827   1.727   1.701   1.821   1.739   1.835   2.086   2.235   2.224   2.367   2.483   2.299   2.037   1.969   1.661   1.773   1.703   1.701   1.636   1.934   2.003   1.893   1.704   1.815   2.062
    95.67    1.891   1.836   1.976   1.820   1.860   1.877   1.945   1.734   1.991   2.005   2.122   1.778   1.735   1.576   1.654   1.776   1.780   1.719   1.460   1.593   1.976   1.867   1.996   2.030   2.050
    84.58    1.808   1.907   1.917   1.812   1.592   1.776   1.670   1.745   1.930   1.860   1.649   1.805   1.777   1.747   2.031   1.931   1.310   1.552   1.638   1.671   1.975   2.003   1.864   2.088   2.193
    73.50    2.145   2.037   1.950   1.659   1.870   1.908   1.746   1.542   1.922   1.880   1.995   2.050   1.670   1.706   1.830   1.941   1.643   1.987   2.003   1.765   1.855   1.952   1.775   2.000   2.151
    62.42    1.993   1.888   2.001   1.967   2.130   1.919   2.107   2.026   2.141   2.284   2.207   1.948   1.895   1.488   1.829   1.763   1.626   2.015   2.321   1.996   2.039   2.010   1.639   1.646   1.845
    51.33    1.905   2.134   2.121   1.824   2.225   2.196   2.149   1.894   1.956   1.958   1.891   1.780   1.428   1.385   1.856   1.778   1.826   2.042   2.033   2.154   1.958   1.925   1.636   1.666   1.625
    40.25    2.049   1.774   1.999   2.204   2.038   2.182   2.097   2.144   1.963   1.933   2.117   1.815   1.585   1.531   1.896   2.181   2.063   2.489   2.074   1.861   2.170   1.806   1.723   1.672   1.621
    29.17    2.087   1.870   1.846   2.110   2.085   2.003   2.067   2.034   2.027   1.903   1.846   1.730   1.864   1.565   1.947   1.813   1.865   2.309   1.986   2.038   1.850   2.005   1.845   1.690   1.481
    18.08    2.074   1.934   2.056   2.425   2.233   2.330   1.878   1.881   2.077   2.339   1.906   1.843   1.872   1.852   1.942   1.926   2.154   2.054   2.080   1.997   1.735   1.675   1.597   1.856   1.577
     7.00    1.902   1.644   1.983   2.291   2.402   2.593   2.409   2.230   2.087   2.185   2.418   1.970   1.652   1.919   1.791   1.574   1.771   1.743   1.630   1.998   1.615   1.632   1.432   1.629   1.547

   Height   Standard deviation at grid points for the v component:
   273.00    1.665   1.665   1.665   1.665   1.665   1.665   1.665   1.665   1.665   1.665   1.665   1.665   1.665   1.665   1.665   1.665   1.665   1.665   1.665   1.665   1.665   1.665   1.665   1.665   1.665
   261.92    1.665   1.665   1.665   1.665   1.665   1.665   1.665   1.665   1.665   1.665   1.665   1.665   1.665   1.665   1.665   1.665   1.665   1.665   1.665   1.665   1.665   1.665   1.665   1.665   1.665
   250.83    1.665   1.665   1.665   1.665   1.665   1.665   1.665   1.665   1.665   1.665   1.665   1.665   1.665   1.665   1.665   1.665   1.665   1.665   1.665   1.665   1.665   1.665   1.665   1.665   1.665
   239.75    1.665   1.665   1.665   1.665   1.665   1.665   1.665   1.665   1.665   1.665   1.665   1.665   1.665   1.665   1.665   1.665   1.665   1.665   1.665   1.665   1.665   1.665   1.665   1.665   1.665
   228.67    1.665   1.665   1.665   1.665   1.665   1.665   1.665   1.665   1.665   1.665   1.665   1.665   1.665   1.665   1.665   1.665   1.665   1.665   1.665   1.665   1.665   1.665   1.665   1.665   1.665
   217.58    1.665   1.665   1.665   1.665   1.665   1.665   1.665   1.665   1.665   1.665   1.665   1.665   1.665   1.665   1.665   1.665   1.665   1.665   1.665   1.665   1.665   1.665   1.665   1.665   1.665
   206.50    1.665   1.665   1.665   1.665   1.665   1.665   1.665   1.665   1.665   1.665   1.665   1.665   1.665   1.665   1.665   1.665   1.665   1.665   1.665   1.665   1.665   1.665   1.665   1.665   1.665
   195.42    1.665   1.665   1.665   1.665   1.665   1.665   1.665   1.665   1.665   1.665   1.665   1.665   1.665   1.665   1.665   1.665   1.665   1.665   1.665   1.665   1.665   1.665   1.665   1.665   1.665
   184.33    1.665   1.665   1.665   1.665   1.665   1.665   1.665   1.665   1.665   1.665   1.665   1.665   1.665   1.665   1.665   1.665   1.665   1.665   1.665   1.665   1.665   1.665   1.665   1.665   1.665
   173.25    1.665   1.665   1.665   1.665   1.665   1.665   1.665   1.665   1.665   1.665   1.665   1.665   1.665   1.665   1.665   1.665   1.665   1.665   1.665   1.665   1.665   1.665   1.665   1.665   1.665
   162.17    1.665   1.665   1.665   1.665   1.665   1.665   1.665   1.665   1.665   1.665   1.665   1.665   1.665   1.665   1.665   1.665   1.665   1.665   1.665   1.665   1.665   1.665   1.665   1.665   1.665
   151.08    1.665   1.665   1.665   1.665   1.665   1.665   1.665   1.665   1.665   1.665   1.665   1.665   1.665   1.665   1.665   1.665   1.665   1.665   1.665   1.665   1.665   1.665   1.665   1.665   1.665
   140.00    1.665   1.665   1.665   1.665   1.665   1.665   1.665   1.665   1.665   1.665   1.665   1.665   1.665   1.665   1.665   1.665   1.665   1.665   1.665   1.665   1.665   1.665   1.665   1.665   1.665
   128.92    1.665   1.665   1.665   1.665   1.665   1.665   1.665   1.665   1.665   1.665   1.665   1.665   1.665   1.665   1.665   1.665   1.665   1.665   1.665   1.665   1.665   1.665   1.665   1.665   1.665
   117.83    1.665   1.665   1.665   1.665   1.665   1.665   1.665   1.665   1.665   1.665   1.665   1.665   1.665   1.665   1.665   1.665   1.665   1.665   1.665   1.665   1.665   1.665   1.665   1.665   1.665
   106.75    1.665   1.665   1.665   1.665   1.665   1.665   1.665   1.665   1.665   1.665   1.665   1.665   1.665   1.665   1.665   1.665   1.665   1.665   1.665   1.665   1.665   1.665   1.665   1.665   1.665
    95.67    1.665   1.665   1.665   1.665   1.665   1.665   1.665   1.665   1.665   1.665   1.665   1.665   1.665   1.665   1.665   1.665   1.665   1.665   1.665   1.665   1.665   1.665   1.665   1.665   1.665
    84.58    1.665   1.665   1.665   1.665   1.665   1.665   1.665   1.665   1.665   1.665   1.665   1.665   1.665   1.665   1.665   1.665   1.665   1.665   1.665   1.665   1.665   1.665   1.665   1.665   1.665
    73.50    1.665   1.665   1.665   1.665   1.665   1.665   1.665   1.665   1.665   1.665   1.665   1.665   1.665   1.665   1.665   1.665   1.665   1.665   1.665   1.665   1.665   1.665   1.665   1.665   1.665
    62.42    1.665   1.665   1.665   1.665   1.665   1.665   1.665   1.665   1.665   1.665   1.665   1.665   1.665   1.665   1.665   1.665   1.665   1.665   1.665   1.665   1.665   1.665   1.665   1.665   1.665
    51.33    1.665   1.665   1.665   1.665   1.665   1.665   1.665   1.665   1.665   1.665   1.665   1.665   1.665   1.665   1.665   1.665   1.665   1.665   1.665   1.665   1.665   1.665   1.665   1.665   1.665
    40.25    1.665   1.665   1.665   1.665   1.665   1.665   1.665   1.665   1.665   1.665   1.665   1.665   1.665   1.665   1.665   1.665   1.665   1.665   1.665   1.665   1.665   1.665   1.665   1.665   1.665
    29.17    1.665   1.665   1.665   1.665   1.665   1.665   1.665   1.665   1.665   1.665   1.665   1.665   1.665   1.665   1.665   1.665   1.665   1.665   1.665   1.665   1.665   1.665   1.665   1.665   1.665
    18.08    1.665   1.665   1.665   1.665   1.665   1.665   1.665   1.665   1.665   1.665   1.665   1.665   1.665   1.665   1.665   1.665   1.665   1.665   1.665   1.665   1.665   1.665   1.665   1.665   1.665
     7.00    1.665   1.665   1.665   1.665   1.665   1.665   1.665   1.665   1.665   1.665   1.665   1.665   1.665   1.665   1.665   1.665   1.665   1.665   1.665   1.665   1.665   1.665   1.665   1.665   1.665

   Height   Standard deviation at grid points for the w component:
   273.00    1.073   1.073   1.073   1.073   1.073   1.073   1.073   1.073   1.073   1.073   1.073   1.073   1.073   1.073   1.073   1.073   1.073   1.073   1.073   1.073   1.073   1.073   1.073   1.073   1.073
   261.92    1.073   1.073   1.073   1.073   1.073   1.073   1.073   1.073   1.073   1.073   1.073   1.073   1.073   1.073   1.073   1.073   1.073   1.073   1.073   1.073   1.073   1.073   1.073   1.073   1.073
   250.83    1.073   1.073   1.073   1.073   1.073   1.073   1.073   1.073   1.073   1.073   1.073   1.073   1.073   1.073   1.073   1.073   1.073   1.073   1.073   1.073   1.073   1.073   1.073   1.073   1.073
   239.75    1.073   1.073   1.073   1.073   1.073   1.073   1.073   1.073   1.073   1.073   1.073   1.073   1.073   1.073   1.073   1.073   1.073   1.073   1.073   1.073   1.073   1.073   1.073   1.073   1.073
   228.67    1.073   1.073   1.073   1.073   1.073   1.073   1.073   1.073   1.073   1.073   1.073   1.073   1.073   1.073   1.073   1.073   1.073   1.073   1.073   1.073   1.073   1.073   1.073   1.073   1.073
   217.58    1.073   1.073   1.073   1.073   1.073   1.073   1.073   1.073   1.073   1.073   1.073   1.073   1.073   1.073   1.073   1.073   1.073   1.073   1.073   1.073   1.073   1.073   1.073   1.073   1.073
   206.50    1.073   1.073   1.073   1.073   1.073   1.073   1.073   1.073   1.073   1.073   1.073   1.073   1.073   1.073   1.073   1.073   1.073   1.073   1.073   1.073   1.073   1.073   1.073   1.073   1.073
   195.42    1.073   1.073   1.073   1.073   1.073   1.073   1.073   1.073   1.073   1.073   1.073   1.073   1.073   1.073   1.073   1.073   1.073   1.073   1.073   1.073   1.073   1.073   1.073   1.073   1.073
   184.33    1.073   1.073   1.073   1.073   1.073   1.073   1.073   1.073   1.073   1.073   1.073   1.073   1.073   1.073   1.073   1.073   1.073   1.073   1.073   1.073   1.073   1.073   1.073   1.073   1.073
   173.25    1.073   1.073   1.073   1.073   1.073   1.073   1.073   1.073   1.073   1.073   1.073   1.073   1.073   1.073   1.073   1.073   1.073   1.073   1.073   1.073   1.073   1.073   1.073   1.073   1.073
   162.17    1.073   1.073   1.073   1.073   1.073   1.073   1.073   1.073   1.073   1.073   1.073   1.073   1.073   1.073   1.073   1.073   1.073   1.073   1.073   1.073   1.073   1.073   1.073   1.073   1.073
   151.08    1.073   1.073   1.073   1.073   1.073   1.073   1.073   1.073   1.073   1.073   1.073   1.073   1.073   1.073   1.073   1.073   1.073   1.073   1.073   1.073   1.073   1.073   1.073   1.073   1.073
   140.00    1.073   1.073   1.073   1.073   1.073   1.073   1.073   1.073   1.073   1.073   1.073   1.073   1.073   1.073   1.073   1.073   1.073   1.073   1.073   1.073   1.073   1.073   1.073   1.073   1.073
   128.92    1.073   1.073   1.073   1.073   1.073   1.073   1.073   1.073   1.073   1.073   1.073   1.073   1.073   1.073   1.073   1.073   1.073   1.073   1.073   1.073   1.073   1.073   1.073   1.073   1.073
   117.83    1.073   1.073   1.073   1.073   1.073   1.073   1.073   1.073   1.073   1.073   1.073   1.073   1.073   1.073   1.073   1.073   1.073   1.073   1.073   1.073   1.073   1.073   1.073   1.073   1.073
   106.75    1.073   1.073   1.073   1.073   1.073   1.073   1.073   1.073   1.073   1.073   1.073   1.073   1.073   1.073   1.073   1.073   1.073   1.073   1.073   1.073   1.073   1.073   1.073   1.073   1.073
    95.67    1.073   1.073   1.073   1.073   1.073   1.073   1.073   1.073   1.073   1.073   1.073   1.073   1.073   1.073   1.073   1.073   1.073   1.073   1.073   1.073   1.073   1.073   1.073   1.073   1.073
    84.58    1.073   1.073   1.073   1.073   1.073   1.073   1.073   1.073   1.073   1.073   1.073   1.073   1.073   1.073   1.073   1.073   1.073   1.073   1.073   1.073   1.073   1.073   1.073   1.073   1.073
    73.50    1.073   1.073   1.073   1.073   1.073   1.073   1.073   1.073   1.073   1.073   1.073   1.073   1.073   1.073   1.073   1.073   1.073   1.073   1.073   1.073   1.073   1.073   1.073   1.073   1.073
    62.42    1.073   1.073   1.073   1.073   1.073   1.073   1.073   1.073   1.073   1.073   1.073   1.073   1.073   1.073   1.073   1.073   1.073   1.073   1.073   1.073   1.073   1.073   1.073   1.073   1.073
    51.33    1.073   1.073   1.073   1.073   1.073   1.073   1.073   1.073   1.073   1.073   1.073   1.073   1.073   1.073   1.073   1.073   1.073   1.073   1.073   1.073   1.073   1.073   1.073   1.073   1.073
    40.25    1.073   1.073   1.073   1.073   1.073   1.073   1.073   1.073   1.073   1.073   1.073   1.073   1.073   1.073   1.073   1.073   1.073   1.073   1.073   1.073   1.073   1.073   1.073   1.073   1.073
    29.17    1.073   1.073   1.073   1.073   1.073   1.073   1.073   1.073   1.073   1.073   1.073   1.073   1.073   1.073   1.073   1.073   1.073   1.073   1.073   1.073   1.073   1.073   1.073   1.073   1.073
    18.08    1.073   1.073   1.073   1.073   1.073   1.073   1.073   1.073   1.073   1.073   1.073   1.073   1.073   1.073   1.073   1.073   1.073   1.073   1.073   1.073   1.073   1.073   1.073   1.073   1.073
     7.00    1.073   1.073   1.073   1.073   1.073   1.073   1.073   1.073   1.073   1.073   1.073   1.073   1.073   1.073   1.073   1.073   1.073   1.073   1.073   1.073   1.073   1.073   1.073   1.073   1.073

   Mean standard deviation across all grid points:
      u component:    2.005 m/s
      v component:    1.665 m/s
      w component:    1.073 m/s


U-component (X) statistics from the interpolated hub point:

   Mean =  11.0000 m/s
   TI   =  20.6024 %


Processing complete.  32.351 CPU seconds used.
