
This summary file was generated by TurbSim (v2.00.08a-bjj, 18-Jul-2017) on 24-Jul-2020 at 16:37:53.


Runtime Options:

        11  Random seed #1
    RANLUX  Type of random number generator
         F  Output binary HH turbulence parameters?
         F  Output formatted turbulence parameters?
         F  Output AeroDyn HH files?
         T  Output AeroDyn FF files?
         F  Output BLADED FF files?
         F  Output tower data?
         F  Output formatted FF files?
         F  Output coherent turbulence time step file?
         T  Clockwise rotation when looking downwind?
 0 -  NONE  IEC turbulence models scaled to exact specified standard deviation


Turbine/Model Specifications:

        25  Vertical grid-point matrix dimension
        25  Horizontal grid-point matrix dimension
     0.050  Time step [seconds]
   180.000  Analysis time [seconds]
   180.000  Usable output time [seconds]
   140.000  Hub height [m]
   266.000  Grid height [m]
   266.000  Grid width [m]
     0.000  Vertical flow angle [degrees]
     0.000  Horizontal flow angle [degrees]


Meteorological Boundary Conditions:

    IECKAI  IEC Kaimal spectral model
         1  IEC standard: IEC 61400-1 Ed. 3: 2005
         A  IEC turbulence characteristic
       NTM  IEC Normal Turbulence Model
       N/A  IEC Extreme Turbulence Model (ETM) "c" parameter [m/s]
       PL   Wind profile type
   140.000  Reference height [m]
    17.000  Reference wind speed [m/s]
       N/A  Jet height [m]
     0.200  Power law exponent
     0.030  Surface roughness length [m]


Non-IEC Meteorological Boundary Conditions:

       N/A  Site latitude [degrees]
       N/A  Gradient Richardson number
       N/A  Friction or shear velocity [m/s]
       N/A  Mixing layer depth [m]
       N/A  Mean hub u'w' Reynolds stress
       N/A  Mean hub u'v' Reynolds stress
       N/A  Mean hub v'w' Reynolds stress


Spatial Coherence Models:

   GENERAL  u-component coherence model
   GENERAL  v-component coherence model
   GENERAL  w-component coherence model
(   12.000, 0.353E-03)  u-component coherence parameters
(*********,  0.00    )  v-component coherence parameters
(*********,  0.00    )  w-component coherence parameters
     0.000  Coherence exponent


You have requested that the following file(s) be generated:

   /home/mertzb/Documents/Analysis/BAR10/temp/Testing/Testing_powercurve_NTM_U17.000000_Seed11.0.bts (AeroDyn/TurbSim full-field wind file)


Turbulence Simulation Scaling Parameter Summary:

   Turbulence model used                            =  IEC Kaimal
   Turbulence characteristic                        =  A
   IEC turbulence type                              =  Normal Turbulence Model
   IEC standard                                     =  IEC 61400-1 Ed. 3: 2005
   Mean wind speed at hub height                    =   17.000 m/s
   Expected value of turbulence intensity at 15 m/s =   16.000%
   Characteristic value of standard deviation       =    2.936 m/s
   Turbulence scale                                 =   42.000 m
   u-component integral scale                       =  340.200 m
   Coherency scale                                  =  340.200 m
   Characteristic value of hub turbulence intensity =   17.271%
   Gradient Richardson number                       =    0.000

   Wind profile type                                =  Power law
   Power law exponent                               =    0.200
   Mean shear across rotor disk                     =    0.038 (m/s)/m
   Assumed rotor diameter                           =  266.000 m
   Surface roughness length                         =    0.030 m

   Nyquist frequency of turbulent wind field        =   10.000 Hz

   Number of time steps in the FFT                  =     3600
   Number of time steps output                      =     3600
   Number of points simulated                       =      625


Mean Flow Angles:

   Vertical   =   0.0 degrees
   Horizontal =   0.0 degrees

Mean Wind Speed Profile:

   Height    Wind Speed   Horizontal Angle  Vertical Angle  U-comp (X)   V-comp (Y)   W-comp (Z)
     (m)        (m/s)         (degrees)       (degrees)       (m/s)        (m/s)        (m/s)   
   ------    ----------   ----------------  --------------  ----------   ----------   ----------
    273.0       19.43            0.00            0.00         19.43         0.00         0.00
    261.9       19.27            0.00            0.00         19.27         0.00         0.00
    250.8       19.10            0.00            0.00         19.10         0.00         0.00
    239.8       18.93            0.00            0.00         18.93         0.00         0.00
    228.7       18.75            0.00            0.00         18.75         0.00         0.00
    217.6       18.57            0.00            0.00         18.57         0.00         0.00
    206.5       18.37            0.00            0.00         18.37         0.00         0.00
    195.4       18.17            0.00            0.00         18.17         0.00         0.00
    184.3       17.96            0.00            0.00         17.96         0.00         0.00
    173.2       17.74            0.00            0.00         17.74         0.00         0.00
    162.2       17.51            0.00            0.00         17.51         0.00         0.00
    151.1       17.26            0.00            0.00         17.26         0.00         0.00
    140.0       17.00            0.00            0.00         17.00         0.00         0.00
    128.9       16.72            0.00            0.00         16.72         0.00         0.00
    117.8       16.42            0.00            0.00         16.42         0.00         0.00
    106.8       16.10            0.00            0.00         16.10         0.00         0.00
     95.7       15.75            0.00            0.00         15.75         0.00         0.00
     84.6       15.37            0.00            0.00         15.37         0.00         0.00
     73.5       14.94            0.00            0.00         14.94         0.00         0.00
     62.4       14.46            0.00            0.00         14.46         0.00         0.00
     51.3       13.91            0.00            0.00         13.91         0.00         0.00
     40.2       13.25            0.00            0.00         13.25         0.00         0.00
     29.2       12.42            0.00            0.00         12.42         0.00         0.00
     18.1       11.29            0.00            0.00         11.29         0.00         0.00
      7.0        9.34            0.00            0.00          9.34         0.00         0.00


Harvested Random Seeds after Generation of the Random Numbers:

     31359375 K 1
            0 K 2


Hub-Height Simulated Turbulence Statistical Summary:

   Type of Wind        Min (m/s)   Mean (m/s)    Max (m/s)  Sigma (m/s)       TI (%)
   ----------------    ---------   ----------    ---------  -----------       ------
   Longitudinal (u)         7.88        17.00        25.48        3.163       18.607
   Lateral (v)             -6.47        -0.00         6.96        2.243       13.195
   Vertical (w)            -4.21        -0.00         5.68        1.420        8.352
   U component              7.88        17.00        25.48        3.163       18.607
   V component             -6.47        -0.00         6.96        2.243       13.195
   W component             -4.21        -0.00         5.68        1.420        8.352
   Horizontal (U&V)         8.31        17.15        25.50        3.128       18.233
   Total                    8.42        17.22        25.76        3.113       18.081

                       Min Reynolds     Mean Reynolds    Max Reynolds    Correlation
   Product             Stress (m/s)^2   Stress (m/s)^2   Stress (m/s)^2  Coefficient
   ----------------    --------------   --------------   --------------  -----------
   u'w'                    -33.228            -0.499            14.734        -0.111
   u'v'                    -41.725             0.571            33.682         0.081
   v'w'                    -19.232            -0.033            19.691        -0.010


   Friction Velocity (Ustar)  =      0.706 m/s
   Maximum Instantaneous TKE  =     50.572 (m/s)^2
   Maximum Instantaneous CTKE =     22.816 (m/s)^2


Grid Point Variance Summary:

   Y-coord -133.00 -121.92 -110.83  -99.75  -88.67  -77.58  -66.50  -55.42  -44.33  -33.25  -22.17  -11.08    0.00   11.08   22.17   33.25   44.33   55.42   66.50   77.58   88.67   99.75  110.83  121.92  133.00

   Height   Standard deviation at grid points for the u component:
   273.00    3.116   3.155   2.855   2.758   3.155   3.018   2.588   2.549   2.957   2.659   2.732   2.421   2.729   2.559   2.267   2.578   2.667   2.826   2.962   2.868   2.961   2.851   2.828   2.872   2.900
   261.92    3.373   3.130   3.086   3.044   3.402   3.400   3.118   2.773   3.329   2.849   2.490   2.421   2.647   2.452   2.421   2.610   2.721   2.893   2.834   2.865   3.209   3.084   2.860   2.763   2.993
   250.83    3.265   3.027   3.192   3.326   3.236   3.243   2.882   3.110   3.087   2.789   2.605   2.494   2.650   2.648   3.038   2.829   2.645   2.928   3.063   3.017   2.602   2.808   2.843   2.550   2.764
   239.75    2.982   2.846   3.049   2.895   2.608   2.890   2.942   2.976   2.581   2.940   2.768   2.904   2.601   2.934   3.177   3.247   2.895   3.393   2.860   2.701   2.771   2.529   2.634   2.527   2.850
   228.67    2.696   2.398   2.694   2.825   2.703   2.918   2.834   2.645   3.020   3.018   3.092   3.092   2.474   2.878   3.107   3.206   3.508   3.091   3.345   2.652   2.603   2.184   2.303   2.284   2.701
   217.58    2.555   2.658   2.671   2.713   2.792   2.822   2.292   2.691   3.122   3.171   3.151   2.980   2.797   2.757   2.931   3.126   3.291   3.123   3.184   2.893   2.520   2.108   2.078   2.417   2.392
   206.50    2.816   2.859   2.904   2.715   2.959   2.604   2.303   2.535   2.845   2.870   3.328   3.465   3.118   2.816   3.122   3.276   3.033   3.170   3.007   2.585   2.571   2.200   2.521   2.324   2.726
   195.42    2.981   2.743   2.733   2.453   2.498   2.787   2.623   3.000   2.776   3.063   3.064   3.241   3.222   2.641   3.021   3.051   3.331   3.037   2.897   2.370   2.314   2.522   2.441   2.413   2.472
   184.33    2.892   2.592   2.296   2.297   2.402   2.807   2.752   3.446   3.288   3.360   3.321   3.184   3.050   2.875   2.914   2.786   2.895   2.919   2.895   2.435   2.631   2.320   2.290   2.536   2.437
   173.25    2.767   2.573   2.596   2.198   2.682   2.683   3.200   3.622   3.507   3.213   3.300   3.293   3.116   3.310   2.974   2.818   2.789   2.947   2.760   2.513   2.549   2.595   2.348   2.541   2.731
   162.17    2.502   2.242   2.509   2.415   2.730   3.153   3.210   3.455   3.866   3.647   3.424   3.270   3.325   3.500   3.230   3.218   2.889   2.498   2.639   2.472   2.756   2.590   2.956   2.915   2.569
   151.08    2.402   2.363   2.184   2.491   2.792   3.059   3.209   3.145   3.599   4.064   3.791   3.606   3.436   3.348   3.363   3.201   2.948   2.681   2.479   2.565   2.646   2.599   2.838   2.821   2.927
   140.00    2.454   1.979   2.001   2.574   2.653   2.716   3.000   3.589   3.925   4.110   3.823   3.582   3.163   2.739   2.950   2.906   2.854   2.487   2.454   2.316   2.677   2.781   2.771   3.080   2.944
   128.92    2.215   2.049   2.128   2.625   3.039   2.943   3.033   3.276   3.671   3.810   3.974   3.446   2.940   2.859   2.720   2.744   2.274   2.621   2.513   2.570   2.698   2.845   2.876   2.860   2.956
   117.83    2.181   2.107   2.367   2.464   2.688   3.036   3.030   2.892   3.342   3.623   3.891   3.523   2.801   2.763   2.489   2.528   2.419   2.749   2.458   2.550   2.507   2.868   2.733   2.909   2.794
   106.75    2.604   2.540   2.410   2.605   2.569   2.604   2.913   3.030   3.024   3.246   3.337   3.195   2.904   2.830   2.393   2.494   2.453   2.477   2.462   2.765   2.825   2.798   2.484   2.562   2.747
    95.67    2.701   2.562   2.831   2.574   2.656   2.686   2.730   2.546   2.746   2.711   2.887   2.593   2.520   2.354   2.470   2.607   2.613   2.529   2.234   2.411   2.877   2.697   2.829   2.820   2.726
    84.58    2.568   2.738   2.746   2.612   2.414   2.540   2.347   2.511   2.641   2.588   2.364   2.542   2.574   2.492   2.874   2.825   2.114   2.298   2.369   2.456   2.787   2.885   2.738   2.907   2.900
    73.50    2.969   2.840   2.780   2.469   2.743   2.802   2.585   2.303   2.643   2.644   2.727   2.880   2.461   2.448   2.646   2.755   2.481   2.771   2.808   2.578   2.687   2.864   2.626   2.842   2.977
    62.42    2.863   2.724   2.789   2.810   3.039   2.779   2.959   2.832   2.925   3.107   2.978   2.684   2.675   2.211   2.579   2.522   2.407   2.818   3.138   2.919   2.966   2.874   2.520   2.410   2.677
    51.33    2.756   2.990   2.927   2.597   3.091   3.063   3.005   2.649   2.823   2.790   2.654   2.566   2.095   2.036   2.604   2.594   2.575   2.756   2.809   3.001   2.840   2.775   2.452   2.451   2.415
    40.25    2.883   2.616   2.797   3.026   2.838   3.091   3.006   2.972   2.812   2.727   2.960   2.579   2.301   2.270   2.661   2.942   2.827   3.324   2.868   2.673   3.081   2.652   2.477   2.450   2.351
    29.17    2.885   2.592   2.539   2.894   2.984   2.848   2.936   2.922   2.792   2.708   2.571   2.541   2.607   2.243   2.731   2.561   2.628   3.110   2.757   2.825   2.616   2.839   2.618   2.409   2.212
    18.08    2.830   2.627   2.792   3.182   3.153   3.287   2.826   2.813   2.939   3.163   2.737   2.599   2.504   2.564   2.664   2.727   2.991   2.803   2.787   2.784   2.467   2.414   2.271   2.508   2.263
     7.00    2.638   2.312   2.670   3.045   3.234   3.514   3.427   3.215   3.016   3.077   3.272   2.713   2.281   2.591   2.502   2.295   2.492   2.426   2.296   2.685   2.320   2.330   2.063   2.309   2.246

   Height   Standard deviation at grid points for the v component:
   273.00    2.243   2.243   2.243   2.243   2.243   2.243   2.243   2.243   2.243   2.243   2.243   2.243   2.243   2.243   2.243   2.243   2.243   2.243   2.243   2.243   2.243   2.243   2.243   2.243   2.243
   261.92    2.243   2.243   2.243   2.243   2.243   2.243   2.243   2.243   2.243   2.243   2.243   2.243   2.243   2.243   2.243   2.243   2.243   2.243   2.243   2.243   2.243   2.243   2.243   2.243   2.243
   250.83    2.243   2.243   2.243   2.243   2.243   2.243   2.243   2.243   2.243   2.243   2.243   2.243   2.243   2.243   2.243   2.243   2.243   2.243   2.243   2.243   2.243   2.243   2.243   2.243   2.243
   239.75    2.243   2.243   2.243   2.243   2.243   2.243   2.243   2.243   2.243   2.243   2.243   2.243   2.243   2.243   2.243   2.243   2.243   2.243   2.243   2.243   2.243   2.243   2.243   2.243   2.243
   228.67    2.243   2.243   2.243   2.243   2.243   2.243   2.243   2.243   2.243   2.243   2.243   2.243   2.243   2.243   2.243   2.243   2.243   2.243   2.243   2.243   2.243   2.243   2.243   2.243   2.243
   217.58    2.243   2.243   2.243   2.243   2.243   2.243   2.243   2.243   2.243   2.243   2.243   2.243   2.243   2.243   2.243   2.243   2.243   2.243   2.243   2.243   2.243   2.243   2.243   2.243   2.243
   206.50    2.243   2.243   2.243   2.243   2.243   2.243   2.243   2.243   2.243   2.243   2.243   2.243   2.243   2.243   2.243   2.243   2.243   2.243   2.243   2.243   2.243   2.243   2.243   2.243   2.243
   195.42    2.243   2.243   2.243   2.243   2.243   2.243   2.243   2.243   2.243   2.243   2.243   2.243   2.243   2.243   2.243   2.243   2.243   2.243   2.243   2.243   2.243   2.243   2.243   2.243   2.243
   184.33    2.243   2.243   2.243   2.243   2.243   2.243   2.243   2.243   2.243   2.243   2.243   2.243   2.243   2.243   2.243   2.243   2.243   2.243   2.243   2.243   2.243   2.243   2.243   2.243   2.243
   173.25    2.243   2.243   2.243   2.243   2.243   2.243   2.243   2.243   2.243   2.243   2.243   2.243   2.243   2.243   2.243   2.243   2.243   2.243   2.243   2.243   2.243   2.243   2.243   2.243   2.243
   162.17    2.243   2.243   2.243   2.243   2.243   2.243   2.243   2.243   2.243   2.243   2.243   2.243   2.243   2.243   2.243   2.243   2.243   2.243   2.243   2.243   2.243   2.243   2.243   2.243   2.243
   151.08    2.243   2.243   2.243   2.243   2.243   2.243   2.243   2.243   2.243   2.243   2.243   2.243   2.243   2.243   2.243   2.243   2.243   2.243   2.243   2.243   2.243   2.243   2.243   2.243   2.243
   140.00    2.243   2.243   2.243   2.243   2.243   2.243   2.243   2.243   2.243   2.243   2.243   2.243   2.243   2.243   2.243   2.243   2.243   2.243   2.243   2.243   2.243   2.243   2.243   2.243   2.243
   128.92    2.243   2.243   2.243   2.243   2.243   2.243   2.243   2.243   2.243   2.243   2.243   2.243   2.243   2.243   2.243   2.243   2.243   2.243   2.243   2.243   2.243   2.243   2.243   2.243   2.243
   117.83    2.243   2.243   2.243   2.243   2.243   2.243   2.243   2.243   2.243   2.243   2.243   2.243   2.243   2.243   2.243   2.243   2.243   2.243   2.243   2.243   2.243   2.243   2.243   2.243   2.243
   106.75    2.243   2.243   2.243   2.243   2.243   2.243   2.243   2.243   2.243   2.243   2.243   2.243   2.243   2.243   2.243   2.243   2.243   2.243   2.243   2.243   2.243   2.243   2.243   2.243   2.243
    95.67    2.243   2.243   2.243   2.243   2.243   2.243   2.243   2.243   2.243   2.243   2.243   2.243   2.243   2.243   2.243   2.243   2.243   2.243   2.243   2.243   2.243   2.243   2.243   2.243   2.243
    84.58    2.243   2.243   2.243   2.243   2.243   2.243   2.243   2.243   2.243   2.243   2.243   2.243   2.243   2.243   2.243   2.243   2.243   2.243   2.243   2.243   2.243   2.243   2.243   2.243   2.243
    73.50    2.243   2.243   2.243   2.243   2.243   2.243   2.243   2.243   2.243   2.243   2.243   2.243   2.243   2.243   2.243   2.243   2.243   2.243   2.243   2.243   2.243   2.243   2.243   2.243   2.243
    62.42    2.243   2.243   2.243   2.243   2.243   2.243   2.243   2.243   2.243   2.243   2.243   2.243   2.243   2.243   2.243   2.243   2.243   2.243   2.243   2.243   2.243   2.243   2.243   2.243   2.243
    51.33    2.243   2.243   2.243   2.243   2.243   2.243   2.243   2.243   2.243   2.243   2.243   2.243   2.243   2.243   2.243   2.243   2.243   2.243   2.243   2.243   2.243   2.243   2.243   2.243   2.243
    40.25    2.243   2.243   2.243   2.243   2.243   2.243   2.243   2.243   2.243   2.243   2.243   2.243   2.243   2.243   2.243   2.243   2.243   2.243   2.243   2.243   2.243   2.243   2.243   2.243   2.243
    29.17    2.243   2.243   2.243   2.243   2.243   2.243   2.243   2.243   2.243   2.243   2.243   2.243   2.243   2.243   2.243   2.243   2.243   2.243   2.243   2.243   2.243   2.243   2.243   2.243   2.243
    18.08    2.243   2.243   2.243   2.243   2.243   2.243   2.243   2.243   2.243   2.243   2.243   2.243   2.243   2.243   2.243   2.243   2.243   2.243   2.243   2.243   2.243   2.243   2.243   2.243   2.243
     7.00    2.243   2.243   2.243   2.243   2.243   2.243   2.243   2.243   2.243   2.243   2.243   2.243   2.243   2.243   2.243   2.243   2.243   2.243   2.243   2.243   2.243   2.243   2.243   2.243   2.243

   Height   Standard deviation at grid points for the w component:
   273.00    1.420   1.420   1.420   1.420   1.420   1.420   1.420   1.420   1.420   1.420   1.420   1.420   1.420   1.420   1.420   1.420   1.420   1.420   1.420   1.420   1.420   1.420   1.420   1.420   1.420
   261.92    1.420   1.420   1.420   1.420   1.420   1.420   1.420   1.420   1.420   1.420   1.420   1.420   1.420   1.420   1.420   1.420   1.420   1.420   1.420   1.420   1.420   1.420   1.420   1.420   1.420
   250.83    1.420   1.420   1.420   1.420   1.420   1.420   1.420   1.420   1.420   1.420   1.420   1.420   1.420   1.420   1.420   1.420   1.420   1.420   1.420   1.420   1.420   1.420   1.420   1.420   1.420
   239.75    1.420   1.420   1.420   1.420   1.420   1.420   1.420   1.420   1.420   1.420   1.420   1.420   1.420   1.420   1.420   1.420   1.420   1.420   1.420   1.420   1.420   1.420   1.420   1.420   1.420
   228.67    1.420   1.420   1.420   1.420   1.420   1.420   1.420   1.420   1.420   1.420   1.420   1.420   1.420   1.420   1.420   1.420   1.420   1.420   1.420   1.420   1.420   1.420   1.420   1.420   1.420
   217.58    1.420   1.420   1.420   1.420   1.420   1.420   1.420   1.420   1.420   1.420   1.420   1.420   1.420   1.420   1.420   1.420   1.420   1.420   1.420   1.420   1.420   1.420   1.420   1.420   1.420
   206.50    1.420   1.420   1.420   1.420   1.420   1.420   1.420   1.420   1.420   1.420   1.420   1.420   1.420   1.420   1.420   1.420   1.420   1.420   1.420   1.420   1.420   1.420   1.420   1.420   1.420
   195.42    1.420   1.420   1.420   1.420   1.420   1.420   1.420   1.420   1.420   1.420   1.420   1.420   1.420   1.420   1.420   1.420   1.420   1.420   1.420   1.420   1.420   1.420   1.420   1.420   1.420
   184.33    1.420   1.420   1.420   1.420   1.420   1.420   1.420   1.420   1.420   1.420   1.420   1.420   1.420   1.420   1.420   1.420   1.420   1.420   1.420   1.420   1.420   1.420   1.420   1.420   1.420
   173.25    1.420   1.420   1.420   1.420   1.420   1.420   1.420   1.420   1.420   1.420   1.420   1.420   1.420   1.420   1.420   1.420   1.420   1.420   1.420   1.420   1.420   1.420   1.420   1.420   1.420
   162.17    1.420   1.420   1.420   1.420   1.420   1.420   1.420   1.420   1.420   1.420   1.420   1.420   1.420   1.420   1.420   1.420   1.420   1.420   1.420   1.420   1.420   1.420   1.420   1.420   1.420
   151.08    1.420   1.420   1.420   1.420   1.420   1.420   1.420   1.420   1.420   1.420   1.420   1.420   1.420   1.420   1.420   1.420   1.420   1.420   1.420   1.420   1.420   1.420   1.420   1.420   1.420
   140.00    1.420   1.420   1.420   1.420   1.420   1.420   1.420   1.420   1.420   1.420   1.420   1.420   1.420   1.420   1.420   1.420   1.420   1.420   1.420   1.420   1.420   1.420   1.420   1.420   1.420
   128.92    1.420   1.420   1.420   1.420   1.420   1.420   1.420   1.420   1.420   1.420   1.420   1.420   1.420   1.420   1.420   1.420   1.420   1.420   1.420   1.420   1.420   1.420   1.420   1.420   1.420
   117.83    1.420   1.420   1.420   1.420   1.420   1.420   1.420   1.420   1.420   1.420   1.420   1.420   1.420   1.420   1.420   1.420   1.420   1.420   1.420   1.420   1.420   1.420   1.420   1.420   1.420
   106.75    1.420   1.420   1.420   1.420   1.420   1.420   1.420   1.420   1.420   1.420   1.420   1.420   1.420   1.420   1.420   1.420   1.420   1.420   1.420   1.420   1.420   1.420   1.420   1.420   1.420
    95.67    1.420   1.420   1.420   1.420   1.420   1.420   1.420   1.420   1.420   1.420   1.420   1.420   1.420   1.420   1.420   1.420   1.420   1.420   1.420   1.420   1.420   1.420   1.420   1.420   1.420
    84.58    1.420   1.420   1.420   1.420   1.420   1.420   1.420   1.420   1.420   1.420   1.420   1.420   1.420   1.420   1.420   1.420   1.420   1.420   1.420   1.420   1.420   1.420   1.420   1.420   1.420
    73.50    1.420   1.420   1.420   1.420   1.420   1.420   1.420   1.420   1.420   1.420   1.420   1.420   1.420   1.420   1.420   1.420   1.420   1.420   1.420   1.420   1.420   1.420   1.420   1.420   1.420
    62.42    1.420   1.420   1.420   1.420   1.420   1.420   1.420   1.420   1.420   1.420   1.420   1.420   1.420   1.420   1.420   1.420   1.420   1.420   1.420   1.420   1.420   1.420   1.420   1.420   1.420
    51.33    1.420   1.420   1.420   1.420   1.420   1.420   1.420   1.420   1.420   1.420   1.420   1.420   1.420   1.420   1.420   1.420   1.420   1.420   1.420   1.420   1.420   1.420   1.420   1.420   1.420
    40.25    1.420   1.420   1.420   1.420   1.420   1.420   1.420   1.420   1.420   1.420   1.420   1.420   1.420   1.420   1.420   1.420   1.420   1.420   1.420   1.420   1.420   1.420   1.420   1.420   1.420
    29.17    1.420   1.420   1.420   1.420   1.420   1.420   1.420   1.420   1.420   1.420   1.420   1.420   1.420   1.420   1.420   1.420   1.420   1.420   1.420   1.420   1.420   1.420   1.420   1.420   1.420
    18.08    1.420   1.420   1.420   1.420   1.420   1.420   1.420   1.420   1.420   1.420   1.420   1.420   1.420   1.420   1.420   1.420   1.420   1.420   1.420   1.420   1.420   1.420   1.420   1.420   1.420
     7.00    1.420   1.420   1.420   1.420   1.420   1.420   1.420   1.420   1.420   1.420   1.420   1.420   1.420   1.420   1.420   1.420   1.420   1.420   1.420   1.420   1.420   1.420   1.420   1.420   1.420

   Mean standard deviation across all grid points:
      u component:    2.793 m/s
      v component:    2.243 m/s
      w component:    1.420 m/s


U-component (X) statistics from the interpolated hub point:

   Mean =  17.0000 m/s
   TI   =  18.6071 %


Processing complete.  45.347 CPU seconds used.
