
This summary file was generated by TurbSim (v2.00.08a-bjj, 18-Jul-2017) on 24-Jul-2020 at 16:37:11.


Runtime Options:

        12  Random seed #1
    RANLUX  Type of random number generator
         F  Output binary HH turbulence parameters?
         F  Output formatted turbulence parameters?
         F  Output AeroDyn HH files?
         T  Output AeroDyn FF files?
         F  Output BLADED FF files?
         F  Output tower data?
         F  Output formatted FF files?
         F  Output coherent turbulence time step file?
         T  Clockwise rotation when looking downwind?
 0 -  NONE  IEC turbulence models scaled to exact specified standard deviation


Turbine/Model Specifications:

        25  Vertical grid-point matrix dimension
        25  Horizontal grid-point matrix dimension
     0.050  Time step [seconds]
   180.000  Analysis time [seconds]
   180.000  Usable output time [seconds]
   140.000  Hub height [m]
   266.000  Grid height [m]
   266.000  Grid width [m]
     0.000  Vertical flow angle [degrees]
     0.000  Horizontal flow angle [degrees]


Meteorological Boundary Conditions:

    IECKAI  IEC Kaimal spectral model
         1  IEC standard: IEC 61400-1 Ed. 3: 2005
         A  IEC turbulence characteristic
       NTM  IEC Normal Turbulence Model
       N/A  IEC Extreme Turbulence Model (ETM) "c" parameter [m/s]
       PL   Wind profile type
   140.000  Reference height [m]
    15.000  Reference wind speed [m/s]
       N/A  Jet height [m]
     0.200  Power law exponent
     0.030  Surface roughness length [m]


Non-IEC Meteorological Boundary Conditions:

       N/A  Site latitude [degrees]
       N/A  Gradient Richardson number
       N/A  Friction or shear velocity [m/s]
       N/A  Mixing layer depth [m]
       N/A  Mean hub u'w' Reynolds stress
       N/A  Mean hub u'v' Reynolds stress
       N/A  Mean hub v'w' Reynolds stress


Spatial Coherence Models:

   GENERAL  u-component coherence model
   GENERAL  v-component coherence model
   GENERAL  w-component coherence model
(   12.000, 0.353E-03)  u-component coherence parameters
(*********,  0.00    )  v-component coherence parameters
(*********,  0.00    )  w-component coherence parameters
     0.000  Coherence exponent


You have requested that the following file(s) be generated:

   /home/mertzb/Documents/Analysis/BAR10/temp/Testing/Testing_powercurve_NTM_U15.000000_Seed12.0.bts (AeroDyn/TurbSim full-field wind file)


Turbulence Simulation Scaling Parameter Summary:

   Turbulence model used                            =  IEC Kaimal
   Turbulence characteristic                        =  A
   IEC turbulence type                              =  Normal Turbulence Model
   IEC standard                                     =  IEC 61400-1 Ed. 3: 2005
   Mean wind speed at hub height                    =   15.000 m/s
   Expected value of turbulence intensity at 15 m/s =   16.000%
   Characteristic value of standard deviation       =    2.696 m/s
   Turbulence scale                                 =   42.000 m
   u-component integral scale                       =  340.200 m
   Coherency scale                                  =  340.200 m
   Characteristic value of hub turbulence intensity =   17.973%
   Gradient Richardson number                       =    0.000

   Wind profile type                                =  Power law
   Power law exponent                               =    0.200
   Mean shear across rotor disk                     =    0.033 (m/s)/m
   Assumed rotor diameter                           =  266.000 m
   Surface roughness length                         =    0.030 m

   Nyquist frequency of turbulent wind field        =   10.000 Hz

   Number of time steps in the FFT                  =     3600
   Number of time steps output                      =     3600
   Number of points simulated                       =      625


Mean Flow Angles:

   Vertical   =   0.0 degrees
   Horizontal =   0.0 degrees

Mean Wind Speed Profile:

   Height    Wind Speed   Horizontal Angle  Vertical Angle  U-comp (X)   V-comp (Y)   W-comp (Z)
     (m)        (m/s)         (degrees)       (degrees)       (m/s)        (m/s)        (m/s)   
   ------    ----------   ----------------  --------------  ----------   ----------   ----------
    273.0       17.14            0.00            0.00         17.14         0.00         0.00
    261.9       17.00            0.00            0.00         17.00         0.00         0.00
    250.8       16.86            0.00            0.00         16.86         0.00         0.00
    239.8       16.70            0.00            0.00         16.70         0.00         0.00
    228.7       16.55            0.00            0.00         16.55         0.00         0.00
    217.6       16.38            0.00            0.00         16.38         0.00         0.00
    206.5       16.21            0.00            0.00         16.21         0.00         0.00
    195.4       16.03            0.00            0.00         16.03         0.00         0.00
    184.3       15.85            0.00            0.00         15.85         0.00         0.00
    173.2       15.65            0.00            0.00         15.65         0.00         0.00
    162.2       15.45            0.00            0.00         15.45         0.00         0.00
    151.1       15.23            0.00            0.00         15.23         0.00         0.00
    140.0       15.00            0.00            0.00         15.00         0.00         0.00
    128.9       14.75            0.00            0.00         14.75         0.00         0.00
    117.8       14.49            0.00            0.00         14.49         0.00         0.00
    106.8       14.21            0.00            0.00         14.21         0.00         0.00
     95.7       13.90            0.00            0.00         13.90         0.00         0.00
     84.6       13.56            0.00            0.00         13.56         0.00         0.00
     73.5       13.19            0.00            0.00         13.19         0.00         0.00
     62.4       12.76            0.00            0.00         12.76         0.00         0.00
     51.3       12.27            0.00            0.00         12.27         0.00         0.00
     40.2       11.69            0.00            0.00         11.69         0.00         0.00
     29.2       10.96            0.00            0.00         10.96         0.00         0.00
     18.1        9.96            0.00            0.00          9.96         0.00         0.00
      7.0        8.24            0.00            0.00          8.24         0.00         0.00


Harvested Random Seeds after Generation of the Random Numbers:

     31359375 K 1
            0 K 2


Hub-Height Simulated Turbulence Statistical Summary:

   Type of Wind        Min (m/s)   Mean (m/s)    Max (m/s)  Sigma (m/s)       TI (%)
   ----------------    ---------   ----------    ---------  -----------       ------
   Longitudinal (u)         9.39        15.00        22.06        2.221       14.808
   Lateral (v)             -7.03        -0.00         7.31        2.052       13.678
   Vertical (w)            -4.10         0.00         4.15        1.305        8.698
   U component              9.39        15.00        22.06        2.221       14.808
   V component             -7.03        -0.00         7.31        2.052       13.678
   W component             -4.10         0.00         4.15        1.305        8.698
   Horizontal (U&V)        10.07        15.15        22.14        2.180       14.391
   Total                   10.14        15.20        22.16        2.175       14.308

                       Min Reynolds     Mean Reynolds    Max Reynolds    Correlation
   Product             Stress (m/s)^2   Stress (m/s)^2   Stress (m/s)^2  Coefficient
   ----------------    --------------   --------------   --------------  -----------
   u'w'                    -13.850            -0.135            19.467        -0.047
   u'v'                    -32.204            -0.640            18.106        -0.140
   v'w'                    -16.024            -0.008            12.665        -0.003


   Friction Velocity (Ustar)  =      0.367 m/s
   Maximum Instantaneous TKE  =     35.339 (m/s)^2
   Maximum Instantaneous CTKE =     16.114 (m/s)^2


Grid Point Variance Summary:

   Y-coord -133.00 -121.92 -110.83  -99.75  -88.67  -77.58  -66.50  -55.42  -44.33  -33.25  -22.17  -11.08    0.00   11.08   22.17   33.25   44.33   55.42   66.50   77.58   88.67   99.75  110.83  121.92  133.00

   Height   Standard deviation at grid points for the u component:
   273.00    1.660   2.006   1.998   2.454   2.546   2.689   2.597   2.410   2.580   2.243   2.067   2.022   1.904   1.966   2.147   2.319   2.268   2.470   2.502   2.114   2.061   2.090   2.168   2.253   2.251
   261.92    1.588   1.846   2.160   2.441   2.482   2.550   2.458   2.511   2.474   2.238   2.138   1.998   2.047   2.043   2.294   2.493   2.625   2.401   2.689   2.179   2.057   2.326   2.518   2.358   2.505
   250.83    2.211   1.880   2.218   2.436   2.451   2.218   2.407   1.963   2.026   2.218   2.322   2.099   2.191   2.303   2.394   2.778   2.690   2.468   2.343   2.378   2.260   2.602   2.212   2.207   2.451
   239.75    2.600   2.121   1.977   2.365   2.161   2.084   2.147   2.271   2.155   2.325   2.402   2.008   2.236   2.749   2.412   2.375   2.682   2.884   2.566   2.637   2.558   2.379   2.175   2.217   2.445
   228.67    2.433   2.152   1.848   2.193   2.027   2.155   2.254   2.177   2.360   2.483   2.615   2.367   2.635   2.755   2.701   2.648   2.692   2.700   2.686   2.742   2.299   2.558   2.454   2.283   2.375
   217.58    2.245   2.339   2.257   2.156   2.240   2.294   2.430   2.247   2.202   2.183   2.330   2.464   2.943   2.863   3.071   2.485   2.551   2.557   2.443   2.261   2.147   2.411   2.158   2.292   2.475
   206.50    2.068   2.235   2.247   2.141   2.249   2.199   2.205   2.398   2.457   2.429   2.361   2.826   2.973   2.860   2.576   2.451   2.439   2.657   2.351   2.248   2.111   2.166   2.430   2.262   2.591
   195.42    2.240   2.205   2.206   2.288   2.432   2.234   1.902   2.215   2.220   2.521   2.635   2.939   2.775   2.746   2.820   2.676   2.270   2.411   2.561   2.200   2.222   1.881   2.071   2.180   2.331
   184.33    2.017   2.257   2.325   2.136   2.386   2.216   2.052   2.219   2.038   2.428   2.459   2.525   2.628   2.725   2.791   2.478   2.094   2.229   2.221   2.089   1.879   1.818   1.788   1.981   2.402
   173.25    2.466   2.497   2.245   2.190   2.272   2.199   2.350   2.561   2.436   2.305   2.453   2.168   2.401   2.448   2.332   2.335   2.226   2.093   1.925   2.092   1.578   1.704   1.862   2.048   2.103
   162.17    2.695   2.459   2.375   2.344   2.282   2.238   2.501   2.378   2.492   2.244   2.148   2.042   2.110   2.281   2.494   2.254   2.425   1.944   1.894   1.893   2.005   1.994   2.082   2.054   2.123
   151.08    2.739   2.584   2.550   2.280   2.402   2.585   2.548   2.669   2.242   2.109   1.922   1.843   2.268   2.159   2.454   2.276   2.229   1.935   1.886   2.402   2.252   2.091   2.179   2.087   1.974
   140.00    2.765   2.539   2.571   2.534   2.206   2.419   2.594   2.504   2.359   2.360   1.965   2.220   2.221   2.240   2.164   2.391   2.624   2.303   2.258   2.411   2.204   2.147   2.043   1.918   1.665
   128.92    2.676   2.718   2.914   2.630   2.200   2.459   2.529   2.494   2.676   2.582   2.346   2.230   2.090   2.125   1.856   2.201   2.339   2.602   2.417   2.491   2.570   2.354   2.380   2.335   2.130
   117.83    2.700   2.804   2.910   2.518   2.336   2.241   2.120   2.142   2.462   2.480   2.179   2.002   2.038   2.146   2.442   2.313   2.169   2.476   2.309   2.329   2.399   2.204   2.221   2.399   2.454
   106.75    2.990   2.782   2.575   2.591   2.763   2.570   2.266   2.150   2.302   2.484   2.306   1.830   2.058   2.255   2.566   2.624   2.507   2.959   2.622   2.697   2.326   1.778   2.373   2.530   2.768
    95.67    2.631   2.666   2.822   2.563   2.755   2.512   2.310   2.380   2.423   2.492   2.199   2.071   2.050   2.500   2.503   2.596   2.643   2.774   2.726   2.428   2.212   2.053   2.176   2.644   2.801
    84.58    3.001   2.695   2.227   2.466   2.668   2.552   2.595   2.442   2.185   2.210   2.240   1.993   2.071   2.627   3.311   3.059   2.702   2.656   2.512   2.294   2.033   2.135   2.194   2.396   2.694
    73.50    2.980   2.484   2.406   2.382   2.282   2.498   2.627   2.626   2.338   2.449   2.520   2.410   2.541   2.895   3.131   2.973   3.027   2.805   2.850   2.788   2.521   2.205   2.442   2.363   2.555
    62.42    3.000   2.730   2.230   2.499   2.583   2.561   2.639   2.242   2.471   2.512   2.744   2.708   2.761   3.232   3.227   3.045   2.826   2.811   2.563   2.435   2.560   2.213   2.330   2.083   2.331
    51.33    2.919   2.586   2.234   2.540   2.587   2.384   2.423   2.258   2.085   2.445   2.429   2.524   2.967   3.218   3.331   3.023   3.017   2.641   2.449   2.646   2.529   2.470   2.578   2.313   2.180
    40.25    2.933   2.451   2.343   2.157   2.164   2.214   2.282   2.175   2.480   2.511   2.436   2.581   2.980   2.879   3.243   2.819   2.793   2.707   2.588   2.514   2.556   2.271   2.458   2.406   2.354
    29.17    2.521   2.520   2.539   2.254   2.366   2.240   2.243   2.223   2.093   2.473   2.909   2.536   2.769   3.235   3.203   3.063   3.188   3.226   2.734   2.857   2.623   2.557   2.377   2.411   2.094
    18.08    2.471   2.810   2.533   2.232   2.123   2.005   1.954   2.115   2.112   2.346   2.567   2.715   2.768   2.994   3.189   3.041   3.132   2.845   3.105   2.845   2.742   2.547   2.572   2.669   2.464
     7.00    2.395   2.338   2.500   2.371   2.204   1.697   1.915   2.153   2.309   2.522   2.436   2.512   2.636   2.611   2.759   2.895   2.780   2.952   2.738   2.771   2.754   2.221   2.570   2.254   2.593

   Height   Standard deviation at grid points for the v component:
   273.00    2.052   2.052   2.052   2.052   2.052   2.052   2.052   2.052   2.052   2.052   2.052   2.052   2.052   2.052   2.052   2.052   2.052   2.052   2.052   2.052   2.052   2.052   2.052   2.052   2.052
   261.92    2.052   2.052   2.052   2.052   2.052   2.052   2.052   2.052   2.052   2.052   2.052   2.052   2.052   2.052   2.052   2.052   2.052   2.052   2.052   2.052   2.052   2.052   2.052   2.052   2.052
   250.83    2.052   2.052   2.052   2.052   2.052   2.052   2.052   2.052   2.052   2.052   2.052   2.052   2.052   2.052   2.052   2.052   2.052   2.052   2.052   2.052   2.052   2.052   2.052   2.052   2.052
   239.75    2.052   2.052   2.052   2.052   2.052   2.052   2.052   2.052   2.052   2.052   2.052   2.052   2.052   2.052   2.052   2.052   2.052   2.052   2.052   2.052   2.052   2.052   2.052   2.052   2.052
   228.67    2.052   2.052   2.052   2.052   2.052   2.052   2.052   2.052   2.052   2.052   2.052   2.052   2.052   2.052   2.052   2.052   2.052   2.052   2.052   2.052   2.052   2.052   2.052   2.052   2.052
   217.58    2.052   2.052   2.052   2.052   2.052   2.052   2.052   2.052   2.052   2.052   2.052   2.052   2.052   2.052   2.052   2.052   2.052   2.052   2.052   2.052   2.052   2.052   2.052   2.052   2.052
   206.50    2.052   2.052   2.052   2.052   2.052   2.052   2.052   2.052   2.052   2.052   2.052   2.052   2.052   2.052   2.052   2.052   2.052   2.052   2.052   2.052   2.052   2.052   2.052   2.052   2.052
   195.42    2.052   2.052   2.052   2.052   2.052   2.052   2.052   2.052   2.052   2.052   2.052   2.052   2.052   2.052   2.052   2.052   2.052   2.052   2.052   2.052   2.052   2.052   2.052   2.052   2.052
   184.33    2.052   2.052   2.052   2.052   2.052   2.052   2.052   2.052   2.052   2.052   2.052   2.052   2.052   2.052   2.052   2.052   2.052   2.052   2.052   2.052   2.052   2.052   2.052   2.052   2.052
   173.25    2.052   2.052   2.052   2.052   2.052   2.052   2.052   2.052   2.052   2.052   2.052   2.052   2.052   2.052   2.052   2.052   2.052   2.052   2.052   2.052   2.052   2.052   2.052   2.052   2.052
   162.17    2.052   2.052   2.052   2.052   2.052   2.052   2.052   2.052   2.052   2.052   2.052   2.052   2.052   2.052   2.052   2.052   2.052   2.052   2.052   2.052   2.052   2.052   2.052   2.052   2.052
   151.08    2.052   2.052   2.052   2.052   2.052   2.052   2.052   2.052   2.052   2.052   2.052   2.052   2.052   2.052   2.052   2.052   2.052   2.052   2.052   2.052   2.052   2.052   2.052   2.052   2.052
   140.00    2.052   2.052   2.052   2.052   2.052   2.052   2.052   2.052   2.052   2.052   2.052   2.052   2.052   2.052   2.052   2.052   2.052   2.052   2.052   2.052   2.052   2.052   2.052   2.052   2.052
   128.92    2.052   2.052   2.052   2.052   2.052   2.052   2.052   2.052   2.052   2.052   2.052   2.052   2.052   2.052   2.052   2.052   2.052   2.052   2.052   2.052   2.052   2.052   2.052   2.052   2.052
   117.83    2.052   2.052   2.052   2.052   2.052   2.052   2.052   2.052   2.052   2.052   2.052   2.052   2.052   2.052   2.052   2.052   2.052   2.052   2.052   2.052   2.052   2.052   2.052   2.052   2.052
   106.75    2.052   2.052   2.052   2.052   2.052   2.052   2.052   2.052   2.052   2.052   2.052   2.052   2.052   2.052   2.052   2.052   2.052   2.052   2.052   2.052   2.052   2.052   2.052   2.052   2.052
    95.67    2.052   2.052   2.052   2.052   2.052   2.052   2.052   2.052   2.052   2.052   2.052   2.052   2.052   2.052   2.052   2.052   2.052   2.052   2.052   2.052   2.052   2.052   2.052   2.052   2.052
    84.58    2.052   2.052   2.052   2.052   2.052   2.052   2.052   2.052   2.052   2.052   2.052   2.052   2.052   2.052   2.052   2.052   2.052   2.052   2.052   2.052   2.052   2.052   2.052   2.052   2.052
    73.50    2.052   2.052   2.052   2.052   2.052   2.052   2.052   2.052   2.052   2.052   2.052   2.052   2.052   2.052   2.052   2.052   2.052   2.052   2.052   2.052   2.052   2.052   2.052   2.052   2.052
    62.42    2.052   2.052   2.052   2.052   2.052   2.052   2.052   2.052   2.052   2.052   2.052   2.052   2.052   2.052   2.052   2.052   2.052   2.052   2.052   2.052   2.052   2.052   2.052   2.052   2.052
    51.33    2.052   2.052   2.052   2.052   2.052   2.052   2.052   2.052   2.052   2.052   2.052   2.052   2.052   2.052   2.052   2.052   2.052   2.052   2.052   2.052   2.052   2.052   2.052   2.052   2.052
    40.25    2.052   2.052   2.052   2.052   2.052   2.052   2.052   2.052   2.052   2.052   2.052   2.052   2.052   2.052   2.052   2.052   2.052   2.052   2.052   2.052   2.052   2.052   2.052   2.052   2.052
    29.17    2.052   2.052   2.052   2.052   2.052   2.052   2.052   2.052   2.052   2.052   2.052   2.052   2.052   2.052   2.052   2.052   2.052   2.052   2.052   2.052   2.052   2.052   2.052   2.052   2.052
    18.08    2.052   2.052   2.052   2.052   2.052   2.052   2.052   2.052   2.052   2.052   2.052   2.052   2.052   2.052   2.052   2.052   2.052   2.052   2.052   2.052   2.052   2.052   2.052   2.052   2.052
     7.00    2.052   2.052   2.052   2.052   2.052   2.052   2.052   2.052   2.052   2.052   2.052   2.052   2.052   2.052   2.052   2.052   2.052   2.052   2.052   2.052   2.052   2.052   2.052   2.052   2.052

   Height   Standard deviation at grid points for the w component:
   273.00    1.305   1.305   1.305   1.305   1.305   1.305   1.305   1.305   1.305   1.305   1.305   1.305   1.305   1.305   1.305   1.305   1.305   1.305   1.305   1.305   1.305   1.305   1.305   1.305   1.305
   261.92    1.305   1.305   1.305   1.305   1.305   1.305   1.305   1.305   1.305   1.305   1.305   1.305   1.305   1.305   1.305   1.305   1.305   1.305   1.305   1.305   1.305   1.305   1.305   1.305   1.305
   250.83    1.305   1.305   1.305   1.305   1.305   1.305   1.305   1.305   1.305   1.305   1.305   1.305   1.305   1.305   1.305   1.305   1.305   1.305   1.305   1.305   1.305   1.305   1.305   1.305   1.305
   239.75    1.305   1.305   1.305   1.305   1.305   1.305   1.305   1.305   1.305   1.305   1.305   1.305   1.305   1.305   1.305   1.305   1.305   1.305   1.305   1.305   1.305   1.305   1.305   1.305   1.305
   228.67    1.305   1.305   1.305   1.305   1.305   1.305   1.305   1.305   1.305   1.305   1.305   1.305   1.305   1.305   1.305   1.305   1.305   1.305   1.305   1.305   1.305   1.305   1.305   1.305   1.305
   217.58    1.305   1.305   1.305   1.305   1.305   1.305   1.305   1.305   1.305   1.305   1.305   1.305   1.305   1.305   1.305   1.305   1.305   1.305   1.305   1.305   1.305   1.305   1.305   1.305   1.305
   206.50    1.305   1.305   1.305   1.305   1.305   1.305   1.305   1.305   1.305   1.305   1.305   1.305   1.305   1.305   1.305   1.305   1.305   1.305   1.305   1.305   1.305   1.305   1.305   1.305   1.305
   195.42    1.305   1.305   1.305   1.305   1.305   1.305   1.305   1.305   1.305   1.305   1.305   1.305   1.305   1.305   1.305   1.305   1.305   1.305   1.305   1.305   1.305   1.305   1.305   1.305   1.305
   184.33    1.305   1.305   1.305   1.305   1.305   1.305   1.305   1.305   1.305   1.305   1.305   1.305   1.305   1.305   1.305   1.305   1.305   1.305   1.305   1.305   1.305   1.305   1.305   1.305   1.305
   173.25    1.305   1.305   1.305   1.305   1.305   1.305   1.305   1.305   1.305   1.305   1.305   1.305   1.305   1.305   1.305   1.305   1.305   1.305   1.305   1.305   1.305   1.305   1.305   1.305   1.305
   162.17    1.305   1.305   1.305   1.305   1.305   1.305   1.305   1.305   1.305   1.305   1.305   1.305   1.305   1.305   1.305   1.305   1.305   1.305   1.305   1.305   1.305   1.305   1.305   1.305   1.305
   151.08    1.305   1.305   1.305   1.305   1.305   1.305   1.305   1.305   1.305   1.305   1.305   1.305   1.305   1.305   1.305   1.305   1.305   1.305   1.305   1.305   1.305   1.305   1.305   1.305   1.305
   140.00    1.305   1.305   1.305   1.305   1.305   1.305   1.305   1.305   1.305   1.305   1.305   1.305   1.305   1.305   1.305   1.305   1.305   1.305   1.305   1.305   1.305   1.305   1.305   1.305   1.305
   128.92    1.305   1.305   1.305   1.305   1.305   1.305   1.305   1.305   1.305   1.305   1.305   1.305   1.305   1.305   1.305   1.305   1.305   1.305   1.305   1.305   1.305   1.305   1.305   1.305   1.305
   117.83    1.305   1.305   1.305   1.305   1.305   1.305   1.305   1.305   1.305   1.305   1.305   1.305   1.305   1.305   1.305   1.305   1.305   1.305   1.305   1.305   1.305   1.305   1.305   1.305   1.305
   106.75    1.305   1.305   1.305   1.305   1.305   1.305   1.305   1.305   1.305   1.305   1.305   1.305   1.305   1.305   1.305   1.305   1.305   1.305   1.305   1.305   1.305   1.305   1.305   1.305   1.305
    95.67    1.305   1.305   1.305   1.305   1.305   1.305   1.305   1.305   1.305   1.305   1.305   1.305   1.305   1.305   1.305   1.305   1.305   1.305   1.305   1.305   1.305   1.305   1.305   1.305   1.305
    84.58    1.305   1.305   1.305   1.305   1.305   1.305   1.305   1.305   1.305   1.305   1.305   1.305   1.305   1.305   1.305   1.305   1.305   1.305   1.305   1.305   1.305   1.305   1.305   1.305   1.305
    73.50    1.305   1.305   1.305   1.305   1.305   1.305   1.305   1.305   1.305   1.305   1.305   1.305   1.305   1.305   1.305   1.305   1.305   1.305   1.305   1.305   1.305   1.305   1.305   1.305   1.305
    62.42    1.305   1.305   1.305   1.305   1.305   1.305   1.305   1.305   1.305   1.305   1.305   1.305   1.305   1.305   1.305   1.305   1.305   1.305   1.305   1.305   1.305   1.305   1.305   1.305   1.305
    51.33    1.305   1.305   1.305   1.305   1.305   1.305   1.305   1.305   1.305   1.305   1.305   1.305   1.305   1.305   1.305   1.305   1.305   1.305   1.305   1.305   1.305   1.305   1.305   1.305   1.305
    40.25    1.305   1.305   1.305   1.305   1.305   1.305   1.305   1.305   1.305   1.305   1.305   1.305   1.305   1.305   1.305   1.305   1.305   1.305   1.305   1.305   1.305   1.305   1.305   1.305   1.305
    29.17    1.305   1.305   1.305   1.305   1.305   1.305   1.305   1.305   1.305   1.305   1.305   1.305   1.305   1.305   1.305   1.305   1.305   1.305   1.305   1.305   1.305   1.305   1.305   1.305   1.305
    18.08    1.305   1.305   1.305   1.305   1.305   1.305   1.305   1.305   1.305   1.305   1.305   1.305   1.305   1.305   1.305   1.305   1.305   1.305   1.305   1.305   1.305   1.305   1.305   1.305   1.305
     7.00    1.305   1.305   1.305   1.305   1.305   1.305   1.305   1.305   1.305   1.305   1.305   1.305   1.305   1.305   1.305   1.305   1.305   1.305   1.305   1.305   1.305   1.305   1.305   1.305   1.305

   Mean standard deviation across all grid points:
      u component:    2.410 m/s
      v component:    2.052 m/s
      w component:    1.305 m/s


U-component (X) statistics from the interpolated hub point:

   Mean =  15.0000 m/s
   TI   =  14.8080 %


Processing complete.  41.288 CPU seconds used.
