
This summary information was generated by AeroDyn on 24-Jul-2020 at 17:16:53.

======  General Options  ============================================================================
            1  WakeMod        - Type of wake/induction model: Blade-Element/Momentum Theory
            2  AFAeroMod      - Type of blade airfoil aerodynamics model: Beddoes-Leishman unsteady model
            0  TwrPotent      - Type tower influence on wind based on potential flow around the tower: none
            F  TwrShadow      - Calculate tower influence on wind based on downstream tower shadow? No
            F  TwrAero        - Calculate tower aerodynamic loads? No
======  Blade-Element/Momentum Theory Options  ======================================================
            2  SkewMod        - Type of skewed-wake correction model: Pitt/Peters
            T  TipLoss        - Use the Prandtl tip-loss model? Yes
            T  HubLoss        - Use the Prandtl hub-loss model? Yes
            T  TanInd         - Include tangential induction in BEMT calculations? Yes
            T  AIDrag         - Include the drag term in the axial-induction calculation? Yes
            T  AIDrag         - Include the drag term in the tangential-induction calculation? Yes
   5.0000E-10  IndToler       - Convergence tolerance for BEM induction factors (radians)
======  Beddoes-Leishman Unsteady Airfoil Aerodynamics Options  =====================================
            3  UAMod          - Unsteady Aero Model: Minemma/Pierce variant (changes in Cc and Cm)
            T  FLookup        - Use a lookup for f'? Yes
======  Outputs  ====================================================================================
            9  NBlOuts        - Number of blade nodes selected for output
           30  NumBlNds       - Number of blade nodes in the analysis
               Blade nodes selected for output:  Output node  Analysis node
                                                 -----------  -------------
                                                           1              1
                                                           2              4
                                                           3              7
                                                           4             13
                                                           5             18
                                                           6             23
                                                           7             26
                                                           8             28
                                                           9             30
            0  NTwOuts        - Number of tower nodes selected for output
               Requested Output Channels:
               Col   Parameter  Units
               ----  ---------  -----
                  0  Time       (s)       
                  1  B1N1Alpha  (deg)     
                  2  B1N1AxInd  (-)       
                  3  B1N1Cd     (-)       
                  4  B1N1Cl     (-)       
                  5  B1N1Fd     (N/m)     
                  6  B1N1Fl     (N/m)     
                  7  B1N1Fx     (N/m)     
                  8  B1N1Fy     (N/m)     
                  9  B1N1TnInd  (-)       
                 10  B1N1Vindx  (m/s)     
                 11  B1N1Vindy  (m/s)     
                 12  B1N2Alpha  (deg)     
                 13  B1N2Cd     (-)       
                 14  B1N2Cl     (-)       
                 15  B1N2Fd     (N/m)     
                 16  B1N2Fl     (N/m)     
                 17  B1N2Fx     (N/m)     
                 18  B1N2Fy     (N/m)     
                 19  B1N3Alpha  (deg)     
                 20  B1N3Cd     (-)       
                 21  B1N3Cl     (-)       
                 22  B1N3Fd     (N/m)     
                 23  B1N3Fl     (N/m)     
                 24  B1N3Fx     (N/m)     
                 25  B1N3Fy     (N/m)     
                 26  B1N4Alpha  (deg)     
                 27  B1N4Cd     (-)       
                 28  B1N4Cl     (-)       
                 29  B1N4Fd     (N/m)     
                 30  B1N4Fl     (N/m)     
                 31  B1N4Fx     (N/m)     
                 32  B1N4Fy     (N/m)     
                 33  B1N5Alpha  (deg)     
                 34  B1N5Cd     (-)       
                 35  B1N5Cl     (-)       
                 36  B1N5Fd     (N/m)     
                 37  B1N5Fl     (N/m)     
                 38  B1N5Fx     (N/m)     
                 39  B1N5Fy     (N/m)     
                 40  B1N6Alpha  (deg)     
                 41  B1N6Cd     (-)       
                 42  B1N6Cl     (-)       
                 43  B1N6Fd     (N/m)     
                 44  B1N6Fl     (N/m)     
                 45  B1N6Fx     (N/m)     
                 46  B1N6Fy     (N/m)     
                 47  B1N7Alpha  (deg)     
                 48  B1N7Cd     (-)       
                 49  B1N7Cl     (-)       
                 50  B1N7Fd     (N/m)     
                 51  B1N7Fl     (N/m)     
                 52  B1N7Fx     (N/m)     
                 53  B1N7Fy     (N/m)     
                 54  B1N8Alpha  (deg)     
                 55  B1N8Cd     (-)       
                 56  B1N8Cl     (-)       
                 57  B1N8Fd     (N/m)     
                 58  B1N8Fl     (N/m)     
                 59  B1N8Fx     (N/m)     
                 60  B1N8Fy     (N/m)     
                 61  B1N9Alpha  (deg)     
                 62  B1N9Cd     (-)       
                 63  B1N9Cl     (-)       
                 64  B1N9Fd     (N/m)     
                 65  B1N9Fl     (N/m)     
                 66  B1N9Fx     (N/m)     
                 67  B1N9Fy     (N/m)     
                 68  B2N1Fx     (N/m)     
                 69  B2N1Fy     (N/m)     
                 70  B2N2Fx     (N/m)     
                 71  B2N2Fy     (N/m)     
                 72  B2N3Fx     (N/m)     
                 73  B2N3Fy     (N/m)     
                 74  B2N4Fx     (N/m)     
                 75  B2N4Fy     (N/m)     
                 76  B2N5Fx     (N/m)     
                 77  B2N5Fy     (N/m)     
                 78  B2N6Fx     (N/m)     
                 79  B2N6Fy     (N/m)     
                 80  B2N7Fx     (N/m)     
                 81  B2N7Fy     (N/m)     
                 82  B2N8Fx     (N/m)     
                 83  B2N8Fy     (N/m)     
                 84  B2N9Fx     (N/m)     
                 85  B2N9Fy     (N/m)     
                 86  B3N1Fx     (N/m)     
                 87  B3N1Fy     (N/m)     
                 88  B3N2Fx     (N/m)     
                 89  B3N2Fy     (N/m)     
                 90  B3N3Fx     (N/m)     
                 91  B3N3Fy     (N/m)     
                 92  B3N4Fx     (N/m)     
                 93  B3N4Fy     (N/m)     
                 94  B3N5Fx     (N/m)     
                 95  B3N5Fy     (N/m)     
                 96  B3N6Fx     (N/m)     
                 97  B3N6Fy     (N/m)     
                 98  B3N7Fx     (N/m)     
                 99  B3N7Fy     (N/m)     
                100  B3N8Fx     (N/m)     
                101  B3N8Fy     (N/m)     
                102  B3N9Fx     (N/m)     
                103  B3N9Fy     (N/m)     
                104  RtAeroCp   (-)       
                105  RtAeroCt   (-)       
                106  RtAeroFxh  (N)       
                107  RtAeroFyh  (N)       
                108  RtAeroFzh  (N)       
                109  RtArea     (m^2)     
                110  RtSpeed    (rpm)     
                111  RtTSR      (-)       
                112  RtVAvgxh   (m/s)     
                113  RtVAvgyh   (m/s)     
                114  RtVAvgzh   (m/s)     
