
This summary file was generated by TurbSim (v2.00.08a-bjj, 18-Jul-2017) on 24-Jul-2020 at 16:33:44.


Runtime Options:

        12  Random seed #1
    RANLUX  Type of random number generator
         F  Output binary HH turbulence parameters?
         F  Output formatted turbulence parameters?
         F  Output AeroDyn HH files?
         T  Output AeroDyn FF files?
         F  Output BLADED FF files?
         F  Output tower data?
         F  Output formatted FF files?
         F  Output coherent turbulence time step file?
         T  Clockwise rotation when looking downwind?
 0 -  NONE  IEC turbulence models scaled to exact specified standard deviation


Turbine/Model Specifications:

        25  Vertical grid-point matrix dimension
        25  Horizontal grid-point matrix dimension
     0.050  Time step [seconds]
   180.000  Analysis time [seconds]
   180.000  Usable output time [seconds]
   140.000  Hub height [m]
   266.000  Grid height [m]
   266.000  Grid width [m]
     0.000  Vertical flow angle [degrees]
     0.000  Horizontal flow angle [degrees]


Meteorological Boundary Conditions:

    IECKAI  IEC Kaimal spectral model
         1  IEC standard: IEC 61400-1 Ed. 3: 2005
         A  IEC turbulence characteristic
       NTM  IEC Normal Turbulence Model
       N/A  IEC Extreme Turbulence Model (ETM) "c" parameter [m/s]
       PL   Wind profile type
   140.000  Reference height [m]
     9.000  Reference wind speed [m/s]
       N/A  Jet height [m]
     0.200  Power law exponent
     0.030  Surface roughness length [m]


Non-IEC Meteorological Boundary Conditions:

       N/A  Site latitude [degrees]
       N/A  Gradient Richardson number
       N/A  Friction or shear velocity [m/s]
       N/A  Mixing layer depth [m]
       N/A  Mean hub u'w' Reynolds stress
       N/A  Mean hub u'v' Reynolds stress
       N/A  Mean hub v'w' Reynolds stress


Spatial Coherence Models:

   GENERAL  u-component coherence model
   GENERAL  v-component coherence model
   GENERAL  w-component coherence model
(   12.000, 0.353E-03)  u-component coherence parameters
(*********,  0.00    )  v-component coherence parameters
(*********,  0.00    )  w-component coherence parameters
     0.000  Coherence exponent


You have requested that the following file(s) be generated:

   /home/mertzb/Documents/Analysis/BAR10/temp/Testing/Testing_powercurve_NTM_U9.000000_Seed12.0.bts (AeroDyn/TurbSim full-field wind file)


Turbulence Simulation Scaling Parameter Summary:

   Turbulence model used                            =  IEC Kaimal
   Turbulence characteristic                        =  A
   IEC turbulence type                              =  Normal Turbulence Model
   IEC standard                                     =  IEC 61400-1 Ed. 3: 2005
   Mean wind speed at hub height                    =    9.000 m/s
   Expected value of turbulence intensity at 15 m/s =   16.000%
   Characteristic value of standard deviation       =    1.976 m/s
   Turbulence scale                                 =   42.000 m
   u-component integral scale                       =  340.200 m
   Coherency scale                                  =  340.200 m
   Characteristic value of hub turbulence intensity =   21.956%
   Gradient Richardson number                       =    0.000

   Wind profile type                                =  Power law
   Power law exponent                               =    0.200
   Mean shear across rotor disk                     =    0.020 (m/s)/m
   Assumed rotor diameter                           =  266.000 m
   Surface roughness length                         =    0.030 m

   Nyquist frequency of turbulent wind field        =   10.000 Hz

   Number of time steps in the FFT                  =     3600
   Number of time steps output                      =     3600
   Number of points simulated                       =      625


Mean Flow Angles:

   Vertical   =   0.0 degrees
   Horizontal =   0.0 degrees

Mean Wind Speed Profile:

   Height    Wind Speed   Horizontal Angle  Vertical Angle  U-comp (X)   V-comp (Y)   W-comp (Z)
     (m)        (m/s)         (degrees)       (degrees)       (m/s)        (m/s)        (m/s)   
   ------    ----------   ----------------  --------------  ----------   ----------   ----------
    273.0       10.29            0.00            0.00         10.29         0.00         0.00
    261.9       10.20            0.00            0.00         10.20         0.00         0.00
    250.8       10.11            0.00            0.00         10.11         0.00         0.00
    239.8       10.02            0.00            0.00         10.02         0.00         0.00
    228.7        9.93            0.00            0.00          9.93         0.00         0.00
    217.6        9.83            0.00            0.00          9.83         0.00         0.00
    206.5        9.73            0.00            0.00          9.73         0.00         0.00
    195.4        9.62            0.00            0.00          9.62         0.00         0.00
    184.3        9.51            0.00            0.00          9.51         0.00         0.00
    173.2        9.39            0.00            0.00          9.39         0.00         0.00
    162.2        9.27            0.00            0.00          9.27         0.00         0.00
    151.1        9.14            0.00            0.00          9.14         0.00         0.00
    140.0        9.00            0.00            0.00          9.00         0.00         0.00
    128.9        8.85            0.00            0.00          8.85         0.00         0.00
    117.8        8.70            0.00            0.00          8.70         0.00         0.00
    106.8        8.52            0.00            0.00          8.52         0.00         0.00
     95.7        8.34            0.00            0.00          8.34         0.00         0.00
     84.6        8.14            0.00            0.00          8.14         0.00         0.00
     73.5        7.91            0.00            0.00          7.91         0.00         0.00
     62.4        7.66            0.00            0.00          7.66         0.00         0.00
     51.3        7.36            0.00            0.00          7.36         0.00         0.00
     40.2        7.01            0.00            0.00          7.01         0.00         0.00
     29.2        6.58            0.00            0.00          6.58         0.00         0.00
     18.1        5.98            0.00            0.00          5.98         0.00         0.00
      7.0        4.94            0.00            0.00          4.94         0.00         0.00


Harvested Random Seeds after Generation of the Random Numbers:

     31359375 K 1
            0 K 2


Hub-Height Simulated Turbulence Statistical Summary:

   Type of Wind        Min (m/s)   Mean (m/s)    Max (m/s)  Sigma (m/s)       TI (%)
   ----------------    ---------   ----------    ---------  -----------       ------
   Longitudinal (u)         4.92         9.00        14.31        1.561       17.341
   Lateral (v)             -4.84         0.00         5.27        1.469       16.325
   Vertical (w)            -2.96         0.00         2.88        0.956       10.621
   U component              4.92         9.00        14.31        1.561       17.341
   V component             -4.84         0.00         5.27        1.469       16.325
   W component             -2.96         0.00         2.88        0.956       10.621
   Horizontal (U&V)         5.69         9.13        14.36        1.513       16.582
   Total                    5.70         9.18        14.38        1.511       16.465

                       Min Reynolds     Mean Reynolds    Max Reynolds    Correlation
   Product             Stress (m/s)^2   Stress (m/s)^2   Stress (m/s)^2  Coefficient
   ----------------    --------------   --------------   --------------  -----------
   u'w'                     -6.730             0.107            11.064         0.072
   u'v'                    -16.651            -0.453             9.767        -0.197
   v'w'                     -8.015            -0.034             6.173        -0.024


   Friction Velocity (Ustar)  =      0.327 m/s
   Maximum Instantaneous TKE  =     18.390 (m/s)^2
   Maximum Instantaneous CTKE =      8.338 (m/s)^2


Grid Point Variance Summary:

   Y-coord -133.00 -121.92 -110.83  -99.75  -88.67  -77.58  -66.50  -55.42  -44.33  -33.25  -22.17  -11.08    0.00   11.08   22.17   33.25   44.33   55.42   66.50   77.58   88.67   99.75  110.83  121.92  133.00

   Height   Standard deviation at grid points for the u component:
   273.00    1.160   1.383   1.345   1.784   1.791   1.937   1.924   1.756   1.877   1.519   1.416   1.321   1.284   1.325   1.443   1.701   1.689   1.807   1.856   1.435   1.409   1.433   1.514   1.607   1.576
   261.92    1.045   1.307   1.535   1.681   1.805   1.854   1.782   1.857   1.836   1.569   1.504   1.313   1.362   1.318   1.635   1.844   1.957   1.757   1.920   1.502   1.351   1.626   1.844   1.686   1.773
   250.83    1.472   1.230   1.502   1.691   1.764   1.423   1.643   1.330   1.428   1.564   1.672   1.586   1.582   1.586   1.669   2.037   1.969   1.822   1.632   1.656   1.590   1.834   1.568   1.476   1.704
   239.75    1.745   1.369   1.302   1.594   1.450   1.330   1.417   1.616   1.468   1.574   1.673   1.421   1.647   2.091   1.789   1.691   1.984   2.205   1.858   1.974   1.831   1.640   1.430   1.473   1.657
   228.67    1.598   1.346   1.146   1.445   1.255   1.395   1.423   1.413   1.666   1.747   1.907   1.711   2.019   2.082   2.057   1.975   2.078   2.043   1.961   2.011   1.581   1.756   1.789   1.568   1.539
   217.58    1.455   1.598   1.516   1.399   1.521   1.510   1.607   1.468   1.505   1.457   1.631   1.753   2.238   2.214   2.366   1.876   1.948   1.813   1.782   1.563   1.521   1.635   1.454   1.527   1.671
   206.50    1.367   1.573   1.511   1.379   1.520   1.408   1.378   1.564   1.646   1.648   1.611   2.097   2.253   2.190   1.879   1.832   1.768   1.922   1.596   1.568   1.483   1.472   1.650   1.503   1.761
   195.42    1.479   1.488   1.462   1.464   1.679   1.560   1.188   1.416   1.404   1.732   1.938   2.208   2.073   2.014   2.075   1.935   1.595   1.760   1.880   1.569   1.597   1.261   1.324   1.414   1.594
   184.33    1.276   1.478   1.495   1.310   1.623   1.529   1.377   1.429   1.295   1.689   1.752   1.868   1.979   2.107   2.089   1.921   1.436   1.551   1.508   1.487   1.341   1.260   1.168   1.290   1.715
   173.25    1.596   1.642   1.442   1.394   1.503   1.485   1.580   1.795   1.692   1.588   1.730   1.487   1.778   1.809   1.658   1.741   1.558   1.452   1.288   1.506   1.089   1.165   1.312   1.394   1.475
   162.17    1.801   1.560   1.558   1.514   1.447   1.377   1.653   1.618   1.746   1.511   1.508   1.431   1.540   1.715   1.895   1.667   1.767   1.321   1.290   1.256   1.461   1.486   1.522   1.495   1.409
   151.08    1.831   1.639   1.693   1.475   1.532   1.683   1.672   1.836   1.496   1.313   1.258   1.245   1.737   1.669   1.965   1.661   1.687   1.358   1.231   1.697   1.661   1.431   1.548   1.405   1.305
   140.00    1.924   1.618   1.617   1.610   1.432   1.561   1.720   1.611   1.554   1.515   1.147   1.431   1.561   1.747   1.650   1.718   1.989   1.600   1.657   1.687   1.606   1.446   1.333   1.314   1.087
   128.92    1.765   1.768   1.929   1.696   1.347   1.580   1.711   1.647   1.734   1.626   1.430   1.504   1.473   1.581   1.229   1.497   1.641   1.933   1.754   1.885   1.905   1.662   1.712   1.595   1.386
   117.83    1.758   1.803   1.896   1.636   1.503   1.494   1.451   1.322   1.548   1.558   1.343   1.361   1.430   1.418   1.652   1.511   1.455   1.780   1.577   1.665   1.802   1.563   1.512   1.646   1.649
   106.75    1.945   1.796   1.596   1.673   1.865   1.713   1.447   1.311   1.411   1.574   1.439   1.087   1.344   1.377   1.671   1.800   1.767   2.144   1.760   1.912   1.699   1.244   1.573   1.767   1.927
    95.67    1.666   1.641   1.814   1.647   1.823   1.650   1.430   1.464   1.479   1.625   1.426   1.279   1.292   1.543   1.514   1.721   1.893   1.951   1.989   1.646   1.531   1.356   1.462   1.837   2.014
    84.58    1.953   1.732   1.341   1.557   1.757   1.629   1.573   1.484   1.309   1.338   1.372   1.174   1.200   1.601   2.169   1.947   1.768   1.839   1.751   1.443   1.320   1.434   1.426   1.549   1.921
    73.50    1.912   1.544   1.520   1.456   1.413   1.651   1.683   1.621   1.430   1.498   1.518   1.411   1.494   1.727   1.966   1.888   2.015   1.854   1.893   1.785   1.627   1.395   1.657   1.579   1.816
    62.42    2.007   1.799   1.439   1.613   1.666   1.669   1.691   1.328   1.524   1.575   1.755   1.686   1.716   2.110   2.054   1.892   1.717   1.745   1.528   1.508   1.565   1.417   1.451   1.509   1.731
    51.33    1.982   1.710   1.481   1.676   1.686   1.518   1.582   1.385   1.262   1.519   1.548   1.644   1.926   2.105   2.158   1.871   1.841   1.563   1.517   1.611   1.582   1.586   1.749   1.668   1.589
    40.25    2.034   1.663   1.559   1.356   1.388   1.360   1.459   1.359   1.623   1.653   1.639   1.706   1.975   1.854   2.111   1.732   1.707   1.590   1.519   1.515   1.665   1.440   1.699   1.781   1.811
    29.17    1.714   1.741   1.775   1.493   1.514   1.439   1.484   1.491   1.313   1.687   2.041   1.627   1.809   2.163   2.125   1.969   2.062   2.029   1.627   1.717   1.601   1.614   1.479   1.544   1.357
    18.08    1.712   2.018   1.768   1.440   1.307   1.312   1.285   1.388   1.309   1.554   1.814   1.894   1.886   2.018   2.118   2.001   2.053   1.808   2.017   1.763   1.672   1.593   1.672   1.741   1.623
     7.00    1.652   1.622   1.848   1.603   1.391   1.121   1.216   1.468   1.534   1.669   1.661   1.801   1.844   1.686   1.827   1.955   1.873   1.999   1.764   1.735   1.748   1.314   1.580   1.438   1.761

   Height   Standard deviation at grid points for the v component:
   273.00    1.469   1.469   1.469   1.469   1.469   1.469   1.469   1.469   1.469   1.469   1.469   1.469   1.469   1.469   1.469   1.469   1.469   1.469   1.469   1.469   1.469   1.469   1.469   1.469   1.469
   261.92    1.469   1.469   1.469   1.469   1.469   1.469   1.469   1.469   1.469   1.469   1.469   1.469   1.469   1.469   1.469   1.469   1.469   1.469   1.469   1.469   1.469   1.469   1.469   1.469   1.469
   250.83    1.469   1.469   1.469   1.469   1.469   1.469   1.469   1.469   1.469   1.469   1.469   1.469   1.469   1.469   1.469   1.469   1.469   1.469   1.469   1.469   1.469   1.469   1.469   1.469   1.469
   239.75    1.469   1.469   1.469   1.469   1.469   1.469   1.469   1.469   1.469   1.469   1.469   1.469   1.469   1.469   1.469   1.469   1.469   1.469   1.469   1.469   1.469   1.469   1.469   1.469   1.469
   228.67    1.469   1.469   1.469   1.469   1.469   1.469   1.469   1.469   1.469   1.469   1.469   1.469   1.469   1.469   1.469   1.469   1.469   1.469   1.469   1.469   1.469   1.469   1.469   1.469   1.469
   217.58    1.469   1.469   1.469   1.469   1.469   1.469   1.469   1.469   1.469   1.469   1.469   1.469   1.469   1.469   1.469   1.469   1.469   1.469   1.469   1.469   1.469   1.469   1.469   1.469   1.469
   206.50    1.469   1.469   1.469   1.469   1.469   1.469   1.469   1.469   1.469   1.469   1.469   1.469   1.469   1.469   1.469   1.469   1.469   1.469   1.469   1.469   1.469   1.469   1.469   1.469   1.469
   195.42    1.469   1.469   1.469   1.469   1.469   1.469   1.469   1.469   1.469   1.469   1.469   1.469   1.469   1.469   1.469   1.469   1.469   1.469   1.469   1.469   1.469   1.469   1.469   1.469   1.469
   184.33    1.469   1.469   1.469   1.469   1.469   1.469   1.469   1.469   1.469   1.469   1.469   1.469   1.469   1.469   1.469   1.469   1.469   1.469   1.469   1.469   1.469   1.469   1.469   1.469   1.469
   173.25    1.469   1.469   1.469   1.469   1.469   1.469   1.469   1.469   1.469   1.469   1.469   1.469   1.469   1.469   1.469   1.469   1.469   1.469   1.469   1.469   1.469   1.469   1.469   1.469   1.469
   162.17    1.469   1.469   1.469   1.469   1.469   1.469   1.469   1.469   1.469   1.469   1.469   1.469   1.469   1.469   1.469   1.469   1.469   1.469   1.469   1.469   1.469   1.469   1.469   1.469   1.469
   151.08    1.469   1.469   1.469   1.469   1.469   1.469   1.469   1.469   1.469   1.469   1.469   1.469   1.469   1.469   1.469   1.469   1.469   1.469   1.469   1.469   1.469   1.469   1.469   1.469   1.469
   140.00    1.469   1.469   1.469   1.469   1.469   1.469   1.469   1.469   1.469   1.469   1.469   1.469   1.469   1.469   1.469   1.469   1.469   1.469   1.469   1.469   1.469   1.469   1.469   1.469   1.469
   128.92    1.469   1.469   1.469   1.469   1.469   1.469   1.469   1.469   1.469   1.469   1.469   1.469   1.469   1.469   1.469   1.469   1.469   1.469   1.469   1.469   1.469   1.469   1.469   1.469   1.469
   117.83    1.469   1.469   1.469   1.469   1.469   1.469   1.469   1.469   1.469   1.469   1.469   1.469   1.469   1.469   1.469   1.469   1.469   1.469   1.469   1.469   1.469   1.469   1.469   1.469   1.469
   106.75    1.469   1.469   1.469   1.469   1.469   1.469   1.469   1.469   1.469   1.469   1.469   1.469   1.469   1.469   1.469   1.469   1.469   1.469   1.469   1.469   1.469   1.469   1.469   1.469   1.469
    95.67    1.469   1.469   1.469   1.469   1.469   1.469   1.469   1.469   1.469   1.469   1.469   1.469   1.469   1.469   1.469   1.469   1.469   1.469   1.469   1.469   1.469   1.469   1.469   1.469   1.469
    84.58    1.469   1.469   1.469   1.469   1.469   1.469   1.469   1.469   1.469   1.469   1.469   1.469   1.469   1.469   1.469   1.469   1.469   1.469   1.469   1.469   1.469   1.469   1.469   1.469   1.469
    73.50    1.469   1.469   1.469   1.469   1.469   1.469   1.469   1.469   1.469   1.469   1.469   1.469   1.469   1.469   1.469   1.469   1.469   1.469   1.469   1.469   1.469   1.469   1.469   1.469   1.469
    62.42    1.469   1.469   1.469   1.469   1.469   1.469   1.469   1.469   1.469   1.469   1.469   1.469   1.469   1.469   1.469   1.469   1.469   1.469   1.469   1.469   1.469   1.469   1.469   1.469   1.469
    51.33    1.469   1.469   1.469   1.469   1.469   1.469   1.469   1.469   1.469   1.469   1.469   1.469   1.469   1.469   1.469   1.469   1.469   1.469   1.469   1.469   1.469   1.469   1.469   1.469   1.469
    40.25    1.469   1.469   1.469   1.469   1.469   1.469   1.469   1.469   1.469   1.469   1.469   1.469   1.469   1.469   1.469   1.469   1.469   1.469   1.469   1.469   1.469   1.469   1.469   1.469   1.469
    29.17    1.469   1.469   1.469   1.469   1.469   1.469   1.469   1.469   1.469   1.469   1.469   1.469   1.469   1.469   1.469   1.469   1.469   1.469   1.469   1.469   1.469   1.469   1.469   1.469   1.469
    18.08    1.469   1.469   1.469   1.469   1.469   1.469   1.469   1.469   1.469   1.469   1.469   1.469   1.469   1.469   1.469   1.469   1.469   1.469   1.469   1.469   1.469   1.469   1.469   1.469   1.469
     7.00    1.469   1.469   1.469   1.469   1.469   1.469   1.469   1.469   1.469   1.469   1.469   1.469   1.469   1.469   1.469   1.469   1.469   1.469   1.469   1.469   1.469   1.469   1.469   1.469   1.469

   Height   Standard deviation at grid points for the w component:
   273.00    0.956   0.956   0.956   0.956   0.956   0.956   0.956   0.956   0.956   0.956   0.956   0.956   0.956   0.956   0.956   0.956   0.956   0.956   0.956   0.956   0.956   0.956   0.956   0.956   0.956
   261.92    0.956   0.956   0.956   0.956   0.956   0.956   0.956   0.956   0.956   0.956   0.956   0.956   0.956   0.956   0.956   0.956   0.956   0.956   0.956   0.956   0.956   0.956   0.956   0.956   0.956
   250.83    0.956   0.956   0.956   0.956   0.956   0.956   0.956   0.956   0.956   0.956   0.956   0.956   0.956   0.956   0.956   0.956   0.956   0.956   0.956   0.956   0.956   0.956   0.956   0.956   0.956
   239.75    0.956   0.956   0.956   0.956   0.956   0.956   0.956   0.956   0.956   0.956   0.956   0.956   0.956   0.956   0.956   0.956   0.956   0.956   0.956   0.956   0.956   0.956   0.956   0.956   0.956
   228.67    0.956   0.956   0.956   0.956   0.956   0.956   0.956   0.956   0.956   0.956   0.956   0.956   0.956   0.956   0.956   0.956   0.956   0.956   0.956   0.956   0.956   0.956   0.956   0.956   0.956
   217.58    0.956   0.956   0.956   0.956   0.956   0.956   0.956   0.956   0.956   0.956   0.956   0.956   0.956   0.956   0.956   0.956   0.956   0.956   0.956   0.956   0.956   0.956   0.956   0.956   0.956
   206.50    0.956   0.956   0.956   0.956   0.956   0.956   0.956   0.956   0.956   0.956   0.956   0.956   0.956   0.956   0.956   0.956   0.956   0.956   0.956   0.956   0.956   0.956   0.956   0.956   0.956
   195.42    0.956   0.956   0.956   0.956   0.956   0.956   0.956   0.956   0.956   0.956   0.956   0.956   0.956   0.956   0.956   0.956   0.956   0.956   0.956   0.956   0.956   0.956   0.956   0.956   0.956
   184.33    0.956   0.956   0.956   0.956   0.956   0.956   0.956   0.956   0.956   0.956   0.956   0.956   0.956   0.956   0.956   0.956   0.956   0.956   0.956   0.956   0.956   0.956   0.956   0.956   0.956
   173.25    0.956   0.956   0.956   0.956   0.956   0.956   0.956   0.956   0.956   0.956   0.956   0.956   0.956   0.956   0.956   0.956   0.956   0.956   0.956   0.956   0.956   0.956   0.956   0.956   0.956
   162.17    0.956   0.956   0.956   0.956   0.956   0.956   0.956   0.956   0.956   0.956   0.956   0.956   0.956   0.956   0.956   0.956   0.956   0.956   0.956   0.956   0.956   0.956   0.956   0.956   0.956
   151.08    0.956   0.956   0.956   0.956   0.956   0.956   0.956   0.956   0.956   0.956   0.956   0.956   0.956   0.956   0.956   0.956   0.956   0.956   0.956   0.956   0.956   0.956   0.956   0.956   0.956
   140.00    0.956   0.956   0.956   0.956   0.956   0.956   0.956   0.956   0.956   0.956   0.956   0.956   0.956   0.956   0.956   0.956   0.956   0.956   0.956   0.956   0.956   0.956   0.956   0.956   0.956
   128.92    0.956   0.956   0.956   0.956   0.956   0.956   0.956   0.956   0.956   0.956   0.956   0.956   0.956   0.956   0.956   0.956   0.956   0.956   0.956   0.956   0.956   0.956   0.956   0.956   0.956
   117.83    0.956   0.956   0.956   0.956   0.956   0.956   0.956   0.956   0.956   0.956   0.956   0.956   0.956   0.956   0.956   0.956   0.956   0.956   0.956   0.956   0.956   0.956   0.956   0.956   0.956
   106.75    0.956   0.956   0.956   0.956   0.956   0.956   0.956   0.956   0.956   0.956   0.956   0.956   0.956   0.956   0.956   0.956   0.956   0.956   0.956   0.956   0.956   0.956   0.956   0.956   0.956
    95.67    0.956   0.956   0.956   0.956   0.956   0.956   0.956   0.956   0.956   0.956   0.956   0.956   0.956   0.956   0.956   0.956   0.956   0.956   0.956   0.956   0.956   0.956   0.956   0.956   0.956
    84.58    0.956   0.956   0.956   0.956   0.956   0.956   0.956   0.956   0.956   0.956   0.956   0.956   0.956   0.956   0.956   0.956   0.956   0.956   0.956   0.956   0.956   0.956   0.956   0.956   0.956
    73.50    0.956   0.956   0.956   0.956   0.956   0.956   0.956   0.956   0.956   0.956   0.956   0.956   0.956   0.956   0.956   0.956   0.956   0.956   0.956   0.956   0.956   0.956   0.956   0.956   0.956
    62.42    0.956   0.956   0.956   0.956   0.956   0.956   0.956   0.956   0.956   0.956   0.956   0.956   0.956   0.956   0.956   0.956   0.956   0.956   0.956   0.956   0.956   0.956   0.956   0.956   0.956
    51.33    0.956   0.956   0.956   0.956   0.956   0.956   0.956   0.956   0.956   0.956   0.956   0.956   0.956   0.956   0.956   0.956   0.956   0.956   0.956   0.956   0.956   0.956   0.956   0.956   0.956
    40.25    0.956   0.956   0.956   0.956   0.956   0.956   0.956   0.956   0.956   0.956   0.956   0.956   0.956   0.956   0.956   0.956   0.956   0.956   0.956   0.956   0.956   0.956   0.956   0.956   0.956
    29.17    0.956   0.956   0.956   0.956   0.956   0.956   0.956   0.956   0.956   0.956   0.956   0.956   0.956   0.956   0.956   0.956   0.956   0.956   0.956   0.956   0.956   0.956   0.956   0.956   0.956
    18.08    0.956   0.956   0.956   0.956   0.956   0.956   0.956   0.956   0.956   0.956   0.956   0.956   0.956   0.956   0.956   0.956   0.956   0.956   0.956   0.956   0.956   0.956   0.956   0.956   0.956
     7.00    0.956   0.956   0.956   0.956   0.956   0.956   0.956   0.956   0.956   0.956   0.956   0.956   0.956   0.956   0.956   0.956   0.956   0.956   0.956   0.956   0.956   0.956   0.956   0.956   0.956

   Mean standard deviation across all grid points:
      u component:    1.626 m/s
      v component:    1.469 m/s
      w component:    0.956 m/s


U-component (X) statistics from the interpolated hub point:

   Mean =   9.0000 m/s
   TI   =  17.3412 %


Processing complete.  27.872 CPU seconds used.
