
This summary file was generated by TurbSim (v2.00.08a-bjj, 18-Jul-2017) on 24-Jul-2020 at 16:43:51.


Runtime Options:

        12  Random seed #1
    RANLUX  Type of random number generator
         F  Output binary HH turbulence parameters?
         F  Output formatted turbulence parameters?
         F  Output AeroDyn HH files?
         T  Output AeroDyn FF files?
         F  Output BLADED FF files?
         F  Output tower data?
         F  Output formatted FF files?
         F  Output coherent turbulence time step file?
         T  Clockwise rotation when looking downwind?
 0 -  NONE  IEC turbulence models scaled to exact specified standard deviation


Turbine/Model Specifications:

        25  Vertical grid-point matrix dimension
        25  Horizontal grid-point matrix dimension
     0.050  Time step [seconds]
   180.000  Analysis time [seconds]
   180.000  Usable output time [seconds]
   140.000  Hub height [m]
   266.000  Grid height [m]
   266.000  Grid width [m]
     0.000  Vertical flow angle [degrees]
     0.000  Horizontal flow angle [degrees]


Meteorological Boundary Conditions:

    IECKAI  IEC Kaimal spectral model
         1  IEC standard: IEC 61400-1 Ed. 3: 2005
         A  IEC turbulence characteristic
       NTM  IEC Normal Turbulence Model
       N/A  IEC Extreme Turbulence Model (ETM) "c" parameter [m/s]
       PL   Wind profile type
   140.000  Reference height [m]
    23.000  Reference wind speed [m/s]
       N/A  Jet height [m]
     0.200  Power law exponent
     0.030  Surface roughness length [m]


Non-IEC Meteorological Boundary Conditions:

       N/A  Site latitude [degrees]
       N/A  Gradient Richardson number
       N/A  Friction or shear velocity [m/s]
       N/A  Mixing layer depth [m]
       N/A  Mean hub u'w' Reynolds stress
       N/A  Mean hub u'v' Reynolds stress
       N/A  Mean hub v'w' Reynolds stress


Spatial Coherence Models:

   GENERAL  u-component coherence model
   GENERAL  v-component coherence model
   GENERAL  w-component coherence model
(   12.000, 0.353E-03)  u-component coherence parameters
(*********,  0.00    )  v-component coherence parameters
(*********,  0.00    )  w-component coherence parameters
     0.000  Coherence exponent


You have requested that the following file(s) be generated:

   /home/mertzb/Documents/Analysis/BAR10/temp/Testing/Testing_powercurve_NTM_U23.000000_Seed12.0.bts (AeroDyn/TurbSim full-field wind file)


Turbulence Simulation Scaling Parameter Summary:

   Turbulence model used                            =  IEC Kaimal
   Turbulence characteristic                        =  A
   IEC turbulence type                              =  Normal Turbulence Model
   IEC standard                                     =  IEC 61400-1 Ed. 3: 2005
   Mean wind speed at hub height                    =   23.000 m/s
   Expected value of turbulence intensity at 15 m/s =   16.000%
   Characteristic value of standard deviation       =    3.656 m/s
   Turbulence scale                                 =   42.000 m
   u-component integral scale                       =  340.200 m
   Coherency scale                                  =  340.200 m
   Characteristic value of hub turbulence intensity =   15.896%
   Gradient Richardson number                       =    0.000

   Wind profile type                                =  Power law
   Power law exponent                               =    0.200
   Mean shear across rotor disk                     =    0.051 (m/s)/m
   Assumed rotor diameter                           =  266.000 m
   Surface roughness length                         =    0.030 m

   Nyquist frequency of turbulent wind field        =   10.000 Hz

   Number of time steps in the FFT                  =     3600
   Number of time steps output                      =     3600
   Number of points simulated                       =      625


Mean Flow Angles:

   Vertical   =   0.0 degrees
   Horizontal =   0.0 degrees

Mean Wind Speed Profile:

   Height    Wind Speed   Horizontal Angle  Vertical Angle  U-comp (X)   V-comp (Y)   W-comp (Z)
     (m)        (m/s)         (degrees)       (degrees)       (m/s)        (m/s)        (m/s)   
   ------    ----------   ----------------  --------------  ----------   ----------   ----------
    273.0       26.29            0.00            0.00         26.29         0.00         0.00
    261.9       26.07            0.00            0.00         26.07         0.00         0.00
    250.8       25.85            0.00            0.00         25.85         0.00         0.00
    239.8       25.61            0.00            0.00         25.61         0.00         0.00
    228.7       25.37            0.00            0.00         25.37         0.00         0.00
    217.6       25.12            0.00            0.00         25.12         0.00         0.00
    206.5       24.86            0.00            0.00         24.86         0.00         0.00
    195.4       24.59            0.00            0.00         24.59         0.00         0.00
    184.3       24.30            0.00            0.00         24.30         0.00         0.00
    173.2       24.00            0.00            0.00         24.00         0.00         0.00
    162.2       23.69            0.00            0.00         23.69         0.00         0.00
    151.1       23.35            0.00            0.00         23.35         0.00         0.00
    140.0       23.00            0.00            0.00         23.00         0.00         0.00
    128.9       22.62            0.00            0.00         22.62         0.00         0.00
    117.8       22.22            0.00            0.00         22.22         0.00         0.00
    106.8       21.79            0.00            0.00         21.79         0.00         0.00
     95.7       21.31            0.00            0.00         21.31         0.00         0.00
     84.6       20.80            0.00            0.00         20.80         0.00         0.00
     73.5       20.22            0.00            0.00         20.22         0.00         0.00
     62.4       19.57            0.00            0.00         19.57         0.00         0.00
     51.3       18.82            0.00            0.00         18.82         0.00         0.00
     40.2       17.92            0.00            0.00         17.92         0.00         0.00
     29.2       16.81            0.00            0.00         16.81         0.00         0.00
     18.1       15.27            0.00            0.00         15.27         0.00         0.00
      7.0       12.63            0.00            0.00         12.63         0.00         0.00


Harvested Random Seeds after Generation of the Random Numbers:

     31359375 K 1
            0 K 2


Hub-Height Simulated Turbulence Statistical Summary:

   Type of Wind        Min (m/s)   Mean (m/s)    Max (m/s)  Sigma (m/s)       TI (%)
   ----------------    ---------   ----------    ---------  -----------       ------
   Longitudinal (u)        14.65        23.00        32.20        3.213       13.969
   Lateral (v)             -9.93         0.00         9.87        2.813       12.232
   Vertical (w)            -5.55         0.00         5.80        1.763        7.663
   U component             14.65        23.00        32.20        3.213       13.969
   V component             -9.93         0.00         9.87        2.813       12.232
   W component             -5.55         0.00         5.80        1.763        7.663
   Horizontal (U&V)        14.66        23.18        32.26        3.174       13.696
   Total                   14.68        23.24        32.33        3.167       13.625

                       Min Reynolds     Mean Reynolds    Max Reynolds    Correlation
   Product             Stress (m/s)^2   Stress (m/s)^2   Stress (m/s)^2  Coefficient
   ----------------    --------------   --------------   --------------  -----------
   u'w'                    -29.556            -0.491            33.094        -0.087
   u'v'                    -57.913            -0.970            40.817        -0.107
   v'w'                    -30.433             0.059            24.710         0.012


   Friction Velocity (Ustar)  =      0.701 m/s
   Maximum Instantaneous TKE  =     63.640 (m/s)^2
   Maximum Instantaneous CTKE =     28.960 (m/s)^2


Grid Point Variance Summary:

   Y-coord -133.00 -121.92 -110.83  -99.75  -88.67  -77.58  -66.50  -55.42  -44.33  -33.25  -22.17  -11.08    0.00   11.08   22.17   33.25   44.33   55.42   66.50   77.58   88.67   99.75  110.83  121.92  133.00

   Height   Standard deviation at grid points for the u component:
   273.00    2.504   2.920   2.926   3.388   3.582   3.718   3.536   3.358   3.565   3.266   2.991   3.006   2.811   2.895   3.178   3.191   3.085   3.346   3.349   3.023   2.909   2.980   3.066   3.089   3.173
   261.92    2.488   2.715   3.097   3.502   3.456   3.551   3.479   3.467   3.383   3.157   3.083   2.995   3.056   3.088   3.247   3.395   3.527   3.275   3.653   3.095   2.979   3.266   3.413   3.268   3.500
   250.83    3.290   2.907   3.256   3.559   3.516   3.369   3.535   2.923   2.918   3.168   3.277   2.918   3.114   3.303   3.412   3.770   3.665   3.351   3.320   3.330   3.144   3.544   3.029   3.189   3.484
   239.75    3.812   3.245   3.019   3.485   3.268   3.216   3.240   3.263   3.134   3.369   3.440   2.937   3.142   3.684   3.271   3.334   3.652   3.813   3.560   3.544   3.474   3.307   3.156   3.250   3.542
   228.67    3.628   3.311   2.902   3.279   3.089   3.225   3.332   3.251   3.379   3.561   3.645   3.360   3.583   3.700   3.589   3.579   3.577   3.636   3.680   3.741   3.266   3.614   3.363   3.311   3.523
   217.58    3.385   3.382   3.331   3.209   3.221   3.327   3.501   3.270   3.197   3.209   3.368   3.498   3.956   3.815   4.022   3.337   3.454   3.588   3.367   3.288   3.036   3.446   3.155   3.351   3.582
   206.50    3.125   3.237   3.284   3.171   3.240   3.286   3.295   3.507   3.557   3.526   3.431   3.877   3.978   3.787   3.516   3.333   3.343   3.666   3.429   3.230   3.053   3.111   3.460   3.256   3.660
   195.42    3.339   3.267   3.284   3.410   3.477   3.156   2.882   3.287   3.338   3.636   3.662   3.999   3.776   3.718   3.801   3.641   3.187   3.352   3.542   3.143   3.129   2.771   3.112   3.220   3.328
   184.33    3.108   3.368   3.466   3.302   3.474   3.187   2.988   3.289   3.058   3.474   3.509   3.530   3.633   3.597   3.706   3.263   3.023   3.241   3.271   3.028   2.693   2.666   2.674   2.925   3.307
   173.25    3.661   3.646   3.351   3.269   3.359   3.233   3.425   3.632   3.492   3.351   3.497   3.200   3.333   3.343   3.239   3.212   3.166   3.049   2.898   2.995   2.437   2.548   2.655   2.932   2.952
   162.17    3.912   3.618   3.493   3.455   3.415   3.390   3.649   3.429   3.520   3.285   3.124   2.925   2.961   3.132   3.375   3.118   3.347   2.886   2.884   2.876   2.851   2.740   2.829   2.805   3.063
   151.08    3.943   3.804   3.692   3.377   3.575   3.773   3.704   3.764   3.277   3.205   2.931   2.777   3.097   2.990   3.241   3.171   3.062   2.850   2.888   3.426   3.169   2.999   3.048   2.992   2.874
   140.00    3.949   3.730   3.774   3.712   3.281   3.549   3.739   3.672   3.439   3.471   3.137   3.312   3.213   3.076   3.026   3.339   3.559   3.327   3.219   3.479   3.110   3.140   3.064   2.797   2.585
   128.92    3.930   3.956   4.185   3.835   3.312   3.620   3.663   3.643   3.876   3.817   3.594   3.324   3.070   3.001   2.869   3.241   3.390   3.588   3.418   3.435   3.572   3.345   3.323   3.317   3.155
   117.83    3.934   4.083   4.204   3.676   3.437   3.300   3.141   3.265   3.677   3.705   3.330   2.979   3.003   3.194   3.513   3.415   3.217   3.489   3.369   3.374   3.347   3.173   3.212   3.420   3.559
   106.75    4.305   4.056   3.835   3.800   3.934   3.705   3.385   3.278   3.475   3.694   3.467   2.959   3.105   3.418   3.730   3.758   3.595   4.088   3.796   3.831   3.336   2.719   3.502   3.596   3.890
    95.67    3.839   3.912   4.047   3.706   3.950   3.669   3.465   3.596   3.645   3.667   3.293   3.226   3.162   3.699   3.774   3.790   3.753   3.939   3.823   3.583   3.301   3.145   3.272   3.799   3.933
    84.58    4.292   3.890   3.350   3.603   3.819   3.746   3.854   3.681   3.377   3.375   3.405   3.152   3.245   3.893   4.710   4.406   3.954   3.829   3.639   3.506   3.186   3.243   3.353   3.618   3.836
    73.50    4.282   3.646   3.544   3.557   3.428   3.613   3.840   3.884   3.503   3.646   3.749   3.678   3.828   4.280   4.509   4.320   4.312   4.074   4.120   4.103   3.784   3.439   3.635   3.529   3.690
    62.42    4.191   3.876   3.248   3.621   3.756   3.679   3.827   3.407   3.666   3.698   3.942   3.934   3.996   4.549   4.582   4.383   4.167   4.167   3.887   3.682   3.897   3.443   3.585   3.088   3.338
    51.33    4.056   3.666   3.211   3.628   3.725   3.493   3.483   3.380   3.174   3.602   3.506   3.584   4.187   4.487   4.648   4.334   4.388   3.964   3.700   3.995   3.838   3.757   3.833   3.394   3.186
    40.25    4.029   3.433   3.326   3.146   3.201   3.301   3.356   3.259   3.562   3.568   3.456   3.647   4.152   4.062   4.541   4.073   4.083   4.060   3.940   3.887   3.887   3.521   3.661   3.503   3.311
    29.17    3.537   3.507   3.484   3.200   3.457   3.267   3.245   3.240   3.098   3.494   3.950   3.591   3.845   4.444   4.419   4.341   4.522   4.648   4.118   4.282   4.003   3.888   3.638   3.683   3.264
    18.08    3.458   3.820   3.479   3.207   3.158   2.959   2.881   3.125   3.173   3.397   3.563   3.725   3.762   4.112   4.414   4.284   4.426   4.156   4.438   4.215   4.109   3.833   3.822   3.959   3.667
     7.00    3.364   3.271   3.328   3.284   3.212   2.611   2.897   3.116   3.359   3.634   3.482   3.470   3.612   3.727   3.913   4.101   3.947   4.155   3.938   4.064   4.095   3.476   3.914   3.452   3.761

   Height   Standard deviation at grid points for the v component:
   273.00    2.813   2.813   2.813   2.813   2.813   2.813   2.813   2.813   2.813   2.813   2.813   2.813   2.813   2.813   2.813   2.813   2.813   2.813   2.813   2.813   2.813   2.813   2.813   2.813   2.813
   261.92    2.813   2.813   2.813   2.813   2.813   2.813   2.813   2.813   2.813   2.813   2.813   2.813   2.813   2.813   2.813   2.813   2.813   2.813   2.813   2.813   2.813   2.813   2.813   2.813   2.813
   250.83    2.813   2.813   2.813   2.813   2.813   2.813   2.813   2.813   2.813   2.813   2.813   2.813   2.813   2.813   2.813   2.813   2.813   2.813   2.813   2.813   2.813   2.813   2.813   2.813   2.813
   239.75    2.813   2.813   2.813   2.813   2.813   2.813   2.813   2.813   2.813   2.813   2.813   2.813   2.813   2.813   2.813   2.813   2.813   2.813   2.813   2.813   2.813   2.813   2.813   2.813   2.813
   228.67    2.813   2.813   2.813   2.813   2.813   2.813   2.813   2.813   2.813   2.813   2.813   2.813   2.813   2.813   2.813   2.813   2.813   2.813   2.813   2.813   2.813   2.813   2.813   2.813   2.813
   217.58    2.813   2.813   2.813   2.813   2.813   2.813   2.813   2.813   2.813   2.813   2.813   2.813   2.813   2.813   2.813   2.813   2.813   2.813   2.813   2.813   2.813   2.813   2.813   2.813   2.813
   206.50    2.813   2.813   2.813   2.813   2.813   2.813   2.813   2.813   2.813   2.813   2.813   2.813   2.813   2.813   2.813   2.813   2.813   2.813   2.813   2.813   2.813   2.813   2.813   2.813   2.813
   195.42    2.813   2.813   2.813   2.813   2.813   2.813   2.813   2.813   2.813   2.813   2.813   2.813   2.813   2.813   2.813   2.813   2.813   2.813   2.813   2.813   2.813   2.813   2.813   2.813   2.813
   184.33    2.813   2.813   2.813   2.813   2.813   2.813   2.813   2.813   2.813   2.813   2.813   2.813   2.813   2.813   2.813   2.813   2.813   2.813   2.813   2.813   2.813   2.813   2.813   2.813   2.813
   173.25    2.813   2.813   2.813   2.813   2.813   2.813   2.813   2.813   2.813   2.813   2.813   2.813   2.813   2.813   2.813   2.813   2.813   2.813   2.813   2.813   2.813   2.813   2.813   2.813   2.813
   162.17    2.813   2.813   2.813   2.813   2.813   2.813   2.813   2.813   2.813   2.813   2.813   2.813   2.813   2.813   2.813   2.813   2.813   2.813   2.813   2.813   2.813   2.813   2.813   2.813   2.813
   151.08    2.813   2.813   2.813   2.813   2.813   2.813   2.813   2.813   2.813   2.813   2.813   2.813   2.813   2.813   2.813   2.813   2.813   2.813   2.813   2.813   2.813   2.813   2.813   2.813   2.813
   140.00    2.813   2.813   2.813   2.813   2.813   2.813   2.813   2.813   2.813   2.813   2.813   2.813   2.813   2.813   2.813   2.813   2.813   2.813   2.813   2.813   2.813   2.813   2.813   2.813   2.813
   128.92    2.813   2.813   2.813   2.813   2.813   2.813   2.813   2.813   2.813   2.813   2.813   2.813   2.813   2.813   2.813   2.813   2.813   2.813   2.813   2.813   2.813   2.813   2.813   2.813   2.813
   117.83    2.813   2.813   2.813   2.813   2.813   2.813   2.813   2.813   2.813   2.813   2.813   2.813   2.813   2.813   2.813   2.813   2.813   2.813   2.813   2.813   2.813   2.813   2.813   2.813   2.813
   106.75    2.813   2.813   2.813   2.813   2.813   2.813   2.813   2.813   2.813   2.813   2.813   2.813   2.813   2.813   2.813   2.813   2.813   2.813   2.813   2.813   2.813   2.813   2.813   2.813   2.813
    95.67    2.813   2.813   2.813   2.813   2.813   2.813   2.813   2.813   2.813   2.813   2.813   2.813   2.813   2.813   2.813   2.813   2.813   2.813   2.813   2.813   2.813   2.813   2.813   2.813   2.813
    84.58    2.813   2.813   2.813   2.813   2.813   2.813   2.813   2.813   2.813   2.813   2.813   2.813   2.813   2.813   2.813   2.813   2.813   2.813   2.813   2.813   2.813   2.813   2.813   2.813   2.813
    73.50    2.813   2.813   2.813   2.813   2.813   2.813   2.813   2.813   2.813   2.813   2.813   2.813   2.813   2.813   2.813   2.813   2.813   2.813   2.813   2.813   2.813   2.813   2.813   2.813   2.813
    62.42    2.813   2.813   2.813   2.813   2.813   2.813   2.813   2.813   2.813   2.813   2.813   2.813   2.813   2.813   2.813   2.813   2.813   2.813   2.813   2.813   2.813   2.813   2.813   2.813   2.813
    51.33    2.813   2.813   2.813   2.813   2.813   2.813   2.813   2.813   2.813   2.813   2.813   2.813   2.813   2.813   2.813   2.813   2.813   2.813   2.813   2.813   2.813   2.813   2.813   2.813   2.813
    40.25    2.813   2.813   2.813   2.813   2.813   2.813   2.813   2.813   2.813   2.813   2.813   2.813   2.813   2.813   2.813   2.813   2.813   2.813   2.813   2.813   2.813   2.813   2.813   2.813   2.813
    29.17    2.813   2.813   2.813   2.813   2.813   2.813   2.813   2.813   2.813   2.813   2.813   2.813   2.813   2.813   2.813   2.813   2.813   2.813   2.813   2.813   2.813   2.813   2.813   2.813   2.813
    18.08    2.813   2.813   2.813   2.813   2.813   2.813   2.813   2.813   2.813   2.813   2.813   2.813   2.813   2.813   2.813   2.813   2.813   2.813   2.813   2.813   2.813   2.813   2.813   2.813   2.813
     7.00    2.813   2.813   2.813   2.813   2.813   2.813   2.813   2.813   2.813   2.813   2.813   2.813   2.813   2.813   2.813   2.813   2.813   2.813   2.813   2.813   2.813   2.813   2.813   2.813   2.813

   Height   Standard deviation at grid points for the w component:
   273.00    1.763   1.763   1.763   1.763   1.763   1.763   1.763   1.763   1.763   1.763   1.763   1.763   1.763   1.763   1.763   1.763   1.763   1.763   1.763   1.763   1.763   1.763   1.763   1.763   1.763
   261.92    1.763   1.763   1.763   1.763   1.763   1.763   1.763   1.763   1.763   1.763   1.763   1.763   1.763   1.763   1.763   1.763   1.763   1.763   1.763   1.763   1.763   1.763   1.763   1.763   1.763
   250.83    1.763   1.763   1.763   1.763   1.763   1.763   1.763   1.763   1.763   1.763   1.763   1.763   1.763   1.763   1.763   1.763   1.763   1.763   1.763   1.763   1.763   1.763   1.763   1.763   1.763
   239.75    1.763   1.763   1.763   1.763   1.763   1.763   1.763   1.763   1.763   1.763   1.763   1.763   1.763   1.763   1.763   1.763   1.763   1.763   1.763   1.763   1.763   1.763   1.763   1.763   1.763
   228.67    1.763   1.763   1.763   1.763   1.763   1.763   1.763   1.763   1.763   1.763   1.763   1.763   1.763   1.763   1.763   1.763   1.763   1.763   1.763   1.763   1.763   1.763   1.763   1.763   1.763
   217.58    1.763   1.763   1.763   1.763   1.763   1.763   1.763   1.763   1.763   1.763   1.763   1.763   1.763   1.763   1.763   1.763   1.763   1.763   1.763   1.763   1.763   1.763   1.763   1.763   1.763
   206.50    1.763   1.763   1.763   1.763   1.763   1.763   1.763   1.763   1.763   1.763   1.763   1.763   1.763   1.763   1.763   1.763   1.763   1.763   1.763   1.763   1.763   1.763   1.763   1.763   1.763
   195.42    1.763   1.763   1.763   1.763   1.763   1.763   1.763   1.763   1.763   1.763   1.763   1.763   1.763   1.763   1.763   1.763   1.763   1.763   1.763   1.763   1.763   1.763   1.763   1.763   1.763
   184.33    1.763   1.763   1.763   1.763   1.763   1.763   1.763   1.763   1.763   1.763   1.763   1.763   1.763   1.763   1.763   1.763   1.763   1.763   1.763   1.763   1.763   1.763   1.763   1.763   1.763
   173.25    1.763   1.763   1.763   1.763   1.763   1.763   1.763   1.763   1.763   1.763   1.763   1.763   1.763   1.763   1.763   1.763   1.763   1.763   1.763   1.763   1.763   1.763   1.763   1.763   1.763
   162.17    1.763   1.763   1.763   1.763   1.763   1.763   1.763   1.763   1.763   1.763   1.763   1.763   1.763   1.763   1.763   1.763   1.763   1.763   1.763   1.763   1.763   1.763   1.763   1.763   1.763
   151.08    1.763   1.763   1.763   1.763   1.763   1.763   1.763   1.763   1.763   1.763   1.763   1.763   1.763   1.763   1.763   1.763   1.763   1.763   1.763   1.763   1.763   1.763   1.763   1.763   1.763
   140.00    1.763   1.763   1.763   1.763   1.763   1.763   1.763   1.763   1.763   1.763   1.763   1.763   1.763   1.763   1.763   1.763   1.763   1.763   1.763   1.763   1.763   1.763   1.763   1.763   1.763
   128.92    1.763   1.763   1.763   1.763   1.763   1.763   1.763   1.763   1.763   1.763   1.763   1.763   1.763   1.763   1.763   1.763   1.763   1.763   1.763   1.763   1.763   1.763   1.763   1.763   1.763
   117.83    1.763   1.763   1.763   1.763   1.763   1.763   1.763   1.763   1.763   1.763   1.763   1.763   1.763   1.763   1.763   1.763   1.763   1.763   1.763   1.763   1.763   1.763   1.763   1.763   1.763
   106.75    1.763   1.763   1.763   1.763   1.763   1.763   1.763   1.763   1.763   1.763   1.763   1.763   1.763   1.763   1.763   1.763   1.763   1.763   1.763   1.763   1.763   1.763   1.763   1.763   1.763
    95.67    1.763   1.763   1.763   1.763   1.763   1.763   1.763   1.763   1.763   1.763   1.763   1.763   1.763   1.763   1.763   1.763   1.763   1.763   1.763   1.763   1.763   1.763   1.763   1.763   1.763
    84.58    1.763   1.763   1.763   1.763   1.763   1.763   1.763   1.763   1.763   1.763   1.763   1.763   1.763   1.763   1.763   1.763   1.763   1.763   1.763   1.763   1.763   1.763   1.763   1.763   1.763
    73.50    1.763   1.763   1.763   1.763   1.763   1.763   1.763   1.763   1.763   1.763   1.763   1.763   1.763   1.763   1.763   1.763   1.763   1.763   1.763   1.763   1.763   1.763   1.763   1.763   1.763
    62.42    1.763   1.763   1.763   1.763   1.763   1.763   1.763   1.763   1.763   1.763   1.763   1.763   1.763   1.763   1.763   1.763   1.763   1.763   1.763   1.763   1.763   1.763   1.763   1.763   1.763
    51.33    1.763   1.763   1.763   1.763   1.763   1.763   1.763   1.763   1.763   1.763   1.763   1.763   1.763   1.763   1.763   1.763   1.763   1.763   1.763   1.763   1.763   1.763   1.763   1.763   1.763
    40.25    1.763   1.763   1.763   1.763   1.763   1.763   1.763   1.763   1.763   1.763   1.763   1.763   1.763   1.763   1.763   1.763   1.763   1.763   1.763   1.763   1.763   1.763   1.763   1.763   1.763
    29.17    1.763   1.763   1.763   1.763   1.763   1.763   1.763   1.763   1.763   1.763   1.763   1.763   1.763   1.763   1.763   1.763   1.763   1.763   1.763   1.763   1.763   1.763   1.763   1.763   1.763
    18.08    1.763   1.763   1.763   1.763   1.763   1.763   1.763   1.763   1.763   1.763   1.763   1.763   1.763   1.763   1.763   1.763   1.763   1.763   1.763   1.763   1.763   1.763   1.763   1.763   1.763
     7.00    1.763   1.763   1.763   1.763   1.763   1.763   1.763   1.763   1.763   1.763   1.763   1.763   1.763   1.763   1.763   1.763   1.763   1.763   1.763   1.763   1.763   1.763   1.763   1.763   1.763

   Mean standard deviation across all grid points:
      u component:    3.480 m/s
      v component:    2.813 m/s
      w component:    1.763 m/s


U-component (X) statistics from the interpolated hub point:

   Mean =  23.0000 m/s
   TI   =  13.9687 %


Processing complete.  58.692 CPU seconds used.
