
This summary file was generated by TurbSim (v2.00.08a-bjj, 18-Jul-2017) on 24-Jul-2020 at 16:41:03.


Runtime Options:

        11  Random seed #1
    RANLUX  Type of random number generator
         F  Output binary HH turbulence parameters?
         F  Output formatted turbulence parameters?
         F  Output AeroDyn HH files?
         T  Output AeroDyn FF files?
         F  Output BLADED FF files?
         F  Output tower data?
         F  Output formatted FF files?
         F  Output coherent turbulence time step file?
         T  Clockwise rotation when looking downwind?
 0 -  NONE  IEC turbulence models scaled to exact specified standard deviation


Turbine/Model Specifications:

        25  Vertical grid-point matrix dimension
        25  Horizontal grid-point matrix dimension
     0.050  Time step [seconds]
   180.000  Analysis time [seconds]
   180.000  Usable output time [seconds]
   140.000  Hub height [m]
   266.000  Grid height [m]
   266.000  Grid width [m]
     0.000  Vertical flow angle [degrees]
     0.000  Horizontal flow angle [degrees]


Meteorological Boundary Conditions:

    IECKAI  IEC Kaimal spectral model
         1  IEC standard: IEC 61400-1 Ed. 3: 2005
         A  IEC turbulence characteristic
       NTM  IEC Normal Turbulence Model
       N/A  IEC Extreme Turbulence Model (ETM) "c" parameter [m/s]
       PL   Wind profile type
   140.000  Reference height [m]
    21.000  Reference wind speed [m/s]
       N/A  Jet height [m]
     0.200  Power law exponent
     0.030  Surface roughness length [m]


Non-IEC Meteorological Boundary Conditions:

       N/A  Site latitude [degrees]
       N/A  Gradient Richardson number
       N/A  Friction or shear velocity [m/s]
       N/A  Mixing layer depth [m]
       N/A  Mean hub u'w' Reynolds stress
       N/A  Mean hub u'v' Reynolds stress
       N/A  Mean hub v'w' Reynolds stress


Spatial Coherence Models:

   GENERAL  u-component coherence model
   GENERAL  v-component coherence model
   GENERAL  w-component coherence model
(   12.000, 0.353E-03)  u-component coherence parameters
(*********,  0.00    )  v-component coherence parameters
(*********,  0.00    )  w-component coherence parameters
     0.000  Coherence exponent


You have requested that the following file(s) be generated:

   /home/mertzb/Documents/Analysis/BAR10/temp/Testing/Testing_powercurve_NTM_U21.000000_Seed11.0.bts (AeroDyn/TurbSim full-field wind file)


Turbulence Simulation Scaling Parameter Summary:

   Turbulence model used                            =  IEC Kaimal
   Turbulence characteristic                        =  A
   IEC turbulence type                              =  Normal Turbulence Model
   IEC standard                                     =  IEC 61400-1 Ed. 3: 2005
   Mean wind speed at hub height                    =   21.000 m/s
   Expected value of turbulence intensity at 15 m/s =   16.000%
   Characteristic value of standard deviation       =    3.416 m/s
   Turbulence scale                                 =   42.000 m
   u-component integral scale                       =  340.200 m
   Coherency scale                                  =  340.200 m
   Characteristic value of hub turbulence intensity =   16.267%
   Gradient Richardson number                       =    0.000

   Wind profile type                                =  Power law
   Power law exponent                               =    0.200
   Mean shear across rotor disk                     =    0.047 (m/s)/m
   Assumed rotor diameter                           =  266.000 m
   Surface roughness length                         =    0.030 m

   Nyquist frequency of turbulent wind field        =   10.000 Hz

   Number of time steps in the FFT                  =     3600
   Number of time steps output                      =     3600
   Number of points simulated                       =      625


Mean Flow Angles:

   Vertical   =   0.0 degrees
   Horizontal =   0.0 degrees

Mean Wind Speed Profile:

   Height    Wind Speed   Horizontal Angle  Vertical Angle  U-comp (X)   V-comp (Y)   W-comp (Z)
     (m)        (m/s)         (degrees)       (degrees)       (m/s)        (m/s)        (m/s)   
   ------    ----------   ----------------  --------------  ----------   ----------   ----------
    273.0       24.00            0.00            0.00         24.00         0.00         0.00
    261.9       23.80            0.00            0.00         23.80         0.00         0.00
    250.8       23.60            0.00            0.00         23.60         0.00         0.00
    239.8       23.39            0.00            0.00         23.39         0.00         0.00
    228.7       23.17            0.00            0.00         23.17         0.00         0.00
    217.6       22.94            0.00            0.00         22.94         0.00         0.00
    206.5       22.70            0.00            0.00         22.70         0.00         0.00
    195.4       22.45            0.00            0.00         22.45         0.00         0.00
    184.3       22.19            0.00            0.00         22.19         0.00         0.00
    173.2       21.91            0.00            0.00         21.91         0.00         0.00
    162.2       21.63            0.00            0.00         21.63         0.00         0.00
    151.1       21.32            0.00            0.00         21.32         0.00         0.00
    140.0       21.00            0.00            0.00         21.00         0.00         0.00
    128.9       20.66            0.00            0.00         20.66         0.00         0.00
    117.8       20.29            0.00            0.00         20.29         0.00         0.00
    106.8       19.89            0.00            0.00         19.89         0.00         0.00
     95.7       19.46            0.00            0.00         19.46         0.00         0.00
     84.6       18.99            0.00            0.00         18.99         0.00         0.00
     73.5       18.46            0.00            0.00         18.46         0.00         0.00
     62.4       17.87            0.00            0.00         17.87         0.00         0.00
     51.3       17.18            0.00            0.00         17.18         0.00         0.00
     40.2       16.37            0.00            0.00         16.37         0.00         0.00
     29.2       15.35            0.00            0.00         15.35         0.00         0.00
     18.1       13.95            0.00            0.00         13.95         0.00         0.00
      7.0       11.53            0.00            0.00         11.53         0.00         0.00


Harvested Random Seeds after Generation of the Random Numbers:

     31359375 K 1
            0 K 2


Hub-Height Simulated Turbulence Statistical Summary:

   Type of Wind        Min (m/s)   Mean (m/s)    Max (m/s)  Sigma (m/s)       TI (%)
   ----------------    ---------   ----------    ---------  -----------       ------
   Longitudinal (u)         9.79        21.00        31.20        3.730       17.760
   Lateral (v)             -7.76        -0.00         8.29        2.624       12.494
   Vertical (w)            -4.96         0.00         6.54        1.649        7.851
   U component              9.79        21.00        31.20        3.730       17.760
   V component             -7.76        -0.00         8.29        2.624       12.494
   W component             -4.96         0.00         6.54        1.649        7.851
   Horizontal (U&V)        10.19        21.17        31.23        3.694       17.452
   Total                   10.33        21.24        31.57        3.679       17.323

                       Min Reynolds     Mean Reynolds    Max Reynolds    Correlation
   Product             Stress (m/s)^2   Stress (m/s)^2   Stress (m/s)^2  Coefficient
   ----------------    --------------   --------------   --------------  -----------
   u'w'                    -47.113            -0.636            21.160        -0.103
   u'v'                    -59.319             0.736            48.504         0.075
   v'w'                    -26.566            -0.023            27.198        -0.005


   Friction Velocity (Ustar)  =      0.797 m/s
   Maximum Instantaneous TKE  =     73.651 (m/s)^2
   Maximum Instantaneous CTKE =     32.560 (m/s)^2


Grid Point Variance Summary:

   Y-coord -133.00 -121.92 -110.83  -99.75  -88.67  -77.58  -66.50  -55.42  -44.33  -33.25  -22.17  -11.08    0.00   11.08   22.17   33.25   44.33   55.42   66.50   77.58   88.67   99.75  110.83  121.92  133.00

   Height   Standard deviation at grid points for the u component:
   273.00    3.665   3.718   3.390   3.281   3.669   3.522   3.045   2.996   3.471   3.115   3.198   2.885   3.199   3.011   2.728   3.049   3.153   3.327   3.500   3.427   3.500   3.354   3.334   3.397   3.454
   261.92    3.915   3.670   3.616   3.583   3.933   3.930   3.625   3.235   3.860   3.336   2.959   2.875   3.105   2.919   2.877   3.064   3.237   3.396   3.342   3.379   3.739   3.573   3.363   3.271   3.528
   250.83    3.844   3.560   3.709   3.851   3.731   3.746   3.369   3.576   3.568   3.284   3.073   2.958   3.081   3.109   3.497   3.307   3.115   3.405   3.549   3.509   3.051   3.282   3.302   3.026   3.248
   239.75    3.508   3.362   3.578   3.379   3.059   3.352   3.429   3.430   3.025   3.440   3.240   3.385   3.028   3.391   3.663   3.745   3.391   3.920   3.339   3.163   3.237   2.949   3.042   2.963   3.326
   228.67    3.214   2.879   3.192   3.319   3.198   3.416   3.333   3.079   3.488   3.523   3.625   3.616   2.959   3.343   3.584   3.684   4.013   3.593   3.876   3.122   3.052   2.580   2.696   2.678   3.142
   217.58    3.090   3.182   3.183   3.202   3.272   3.324   2.754   3.129   3.586   3.659   3.662   3.502   3.312   3.225   3.386   3.625   3.755   3.602   3.682   3.397   2.963   2.556   2.456   2.836   2.816
   206.50    3.351   3.370   3.429   3.175   3.400   3.030   2.752   3.005   3.319   3.340   3.859   4.028   3.691   3.335   3.626   3.798   3.517   3.637   3.522   3.088   3.059   2.651   2.984   2.726   3.209
   195.42    3.491   3.224   3.192   2.897   2.930   3.252   3.096   3.534   3.252   3.552   3.550   3.772   3.743   3.133   3.539   3.570   3.863   3.523   3.426   2.855   2.790   3.005   2.924   2.886   2.956
   184.33    3.379   3.054   2.693   2.761   2.827   3.286   3.252   4.008   3.809   3.894   3.864   3.703   3.551   3.384   3.433   3.284   3.395   3.430   3.407   2.934   3.137   2.811   2.777   3.042   2.927
   173.25    3.226   2.996   3.036   2.653   3.129   3.141   3.722   4.187   4.062   3.803   3.856   3.817   3.637   3.854   3.443   3.338   3.279   3.444   3.287   3.055   3.082   3.147   2.850   3.053   3.232
   162.17    2.956   2.667   2.938   2.849   3.212   3.670   3.750   4.028   4.477   4.252   4.017   3.830   3.866   4.032   3.742   3.748   3.416   2.986   3.181   3.015   3.324   3.132   3.540   3.485   3.048
   151.08    2.795   2.777   2.622   2.952   3.301   3.553   3.752   3.703   4.183   4.684   4.409   4.188   4.000   3.875   3.867   3.702   3.444   3.218   3.021   3.095   3.229   3.167   3.424   3.385   3.453
   140.00    2.878   2.363   2.415   3.057   3.157   3.190   3.528   4.155   4.535   4.734   4.457   4.189   3.730   3.263   3.443   3.386   3.353   2.994   2.986   2.836   3.244   3.365   3.324   3.649   3.500
   128.92    2.622   2.496   2.575   3.107   3.557   3.486   3.567   3.846   4.274   4.399   4.584   4.037   3.508   3.382   3.208   3.206   2.742   3.134   3.042   3.111   3.234   3.419   3.420   3.400   3.516
   117.83    2.628   2.574   2.825   2.970   3.208   3.590   3.611   3.431   3.895   4.204   4.487   4.110   3.371   3.301   2.948   2.967   2.898   3.261   2.984   3.082   3.038   3.434   3.254   3.453   3.305
   106.75    3.115   3.052   2.877   3.119   3.118   3.129   3.458   3.557   3.542   3.802   3.871   3.744   3.442   3.363   2.856   2.942   2.918   2.968   2.986   3.289   3.340   3.363   3.014   3.077   3.219
    95.67    3.216   3.037   3.369   3.078   3.184   3.213   3.262   3.078   3.240   3.177   3.369   3.093   2.993   2.833   2.981   3.121   3.117   3.031   2.733   2.936   3.433   3.225   3.382   3.369   3.205
    84.58    3.052   3.263   3.284   3.144   2.956   3.055   2.817   3.015   3.107   3.050   2.831   3.006   3.052   2.951   3.380   3.358   2.625   2.772   2.842   2.967   3.313   3.450   3.310   3.463   3.403
    73.50    3.492   3.356   3.318   2.992   3.307   3.361   3.121   2.796   3.108   3.125   3.174   3.401   2.950   2.900   3.130   3.251   2.993   3.253   3.301   3.086   3.205   3.433   3.187   3.404   3.542
    62.42    3.417   3.266   3.285   3.328   3.602   3.310   3.491   3.339   3.419   3.621   3.452   3.146   3.156   2.666   3.033   2.992   2.894   3.310   3.629   3.470   3.520   3.418   3.077   2.934   3.239
    51.33    3.290   3.524   3.431   3.080   3.632   3.613   3.552   3.137   3.371   3.319   3.134   3.067   2.543   2.455   3.061   3.099   3.044   3.192   3.282   3.514   3.379   3.300   2.970   2.978   2.941
    40.25    3.403   3.145   3.308   3.548   3.345   3.659   3.583   3.488   3.351   3.235   3.496   3.060   2.744   2.723   3.127   3.412   3.293   3.820   3.340   3.159   3.618   3.170   2.959   2.950   2.834
    29.17    3.390   3.062   2.992   3.391   3.538   3.385   3.490   3.488   3.297   3.239   3.050   3.066   3.074   2.661   3.204   3.030   3.108   3.601   3.230   3.295   3.081   3.362   3.102   2.884   2.712
    18.08    3.319   3.077   3.268   3.659   3.713   3.873   3.420   3.413   3.507   3.711   3.282   3.095   2.906   3.021   3.101   3.204   3.507   3.287   3.237   3.266   2.922   2.901   2.730   2.967   2.734
     7.00    3.123   2.750   3.110   3.525   3.761   4.083   4.055   3.839   3.625   3.669   3.837   3.198   2.684   3.017   2.961   2.756   2.963   2.904   2.743   3.150   2.783   2.793   2.517   2.782   2.740

   Height   Standard deviation at grid points for the v component:
   273.00    2.624   2.624   2.624   2.624   2.624   2.624   2.624   2.624   2.624   2.624   2.624   2.624   2.624   2.624   2.624   2.624   2.624   2.624   2.624   2.624   2.624   2.624   2.624   2.624   2.624
   261.92    2.624   2.624   2.624   2.624   2.624   2.624   2.624   2.624   2.624   2.624   2.624   2.624   2.624   2.624   2.624   2.624   2.624   2.624   2.624   2.624   2.624   2.624   2.624   2.624   2.624
   250.83    2.624   2.624   2.624   2.624   2.624   2.624   2.624   2.624   2.624   2.624   2.624   2.624   2.624   2.624   2.624   2.624   2.624   2.624   2.624   2.624   2.624   2.624   2.624   2.624   2.624
   239.75    2.624   2.624   2.624   2.624   2.624   2.624   2.624   2.624   2.624   2.624   2.624   2.624   2.624   2.624   2.624   2.624   2.624   2.624   2.624   2.624   2.624   2.624   2.624   2.624   2.624
   228.67    2.624   2.624   2.624   2.624   2.624   2.624   2.624   2.624   2.624   2.624   2.624   2.624   2.624   2.624   2.624   2.624   2.624   2.624   2.624   2.624   2.624   2.624   2.624   2.624   2.624
   217.58    2.624   2.624   2.624   2.624   2.624   2.624   2.624   2.624   2.624   2.624   2.624   2.624   2.624   2.624   2.624   2.624   2.624   2.624   2.624   2.624   2.624   2.624   2.624   2.624   2.624
   206.50    2.624   2.624   2.624   2.624   2.624   2.624   2.624   2.624   2.624   2.624   2.624   2.624   2.624   2.624   2.624   2.624   2.624   2.624   2.624   2.624   2.624   2.624   2.624   2.624   2.624
   195.42    2.624   2.624   2.624   2.624   2.624   2.624   2.624   2.624   2.624   2.624   2.624   2.624   2.624   2.624   2.624   2.624   2.624   2.624   2.624   2.624   2.624   2.624   2.624   2.624   2.624
   184.33    2.624   2.624   2.624   2.624   2.624   2.624   2.624   2.624   2.624   2.624   2.624   2.624   2.624   2.624   2.624   2.624   2.624   2.624   2.624   2.624   2.624   2.624   2.624   2.624   2.624
   173.25    2.624   2.624   2.624   2.624   2.624   2.624   2.624   2.624   2.624   2.624   2.624   2.624   2.624   2.624   2.624   2.624   2.624   2.624   2.624   2.624   2.624   2.624   2.624   2.624   2.624
   162.17    2.624   2.624   2.624   2.624   2.624   2.624   2.624   2.624   2.624   2.624   2.624   2.624   2.624   2.624   2.624   2.624   2.624   2.624   2.624   2.624   2.624   2.624   2.624   2.624   2.624
   151.08    2.624   2.624   2.624   2.624   2.624   2.624   2.624   2.624   2.624   2.624   2.624   2.624   2.624   2.624   2.624   2.624   2.624   2.624   2.624   2.624   2.624   2.624   2.624   2.624   2.624
   140.00    2.624   2.624   2.624   2.624   2.624   2.624   2.624   2.624   2.624   2.624   2.624   2.624   2.624   2.624   2.624   2.624   2.624   2.624   2.624   2.624   2.624   2.624   2.624   2.624   2.624
   128.92    2.624   2.624   2.624   2.624   2.624   2.624   2.624   2.624   2.624   2.624   2.624   2.624   2.624   2.624   2.624   2.624   2.624   2.624   2.624   2.624   2.624   2.624   2.624   2.624   2.624
   117.83    2.624   2.624   2.624   2.624   2.624   2.624   2.624   2.624   2.624   2.624   2.624   2.624   2.624   2.624   2.624   2.624   2.624   2.624   2.624   2.624   2.624   2.624   2.624   2.624   2.624
   106.75    2.624   2.624   2.624   2.624   2.624   2.624   2.624   2.624   2.624   2.624   2.624   2.624   2.624   2.624   2.624   2.624   2.624   2.624   2.624   2.624   2.624   2.624   2.624   2.624   2.624
    95.67    2.624   2.624   2.624   2.624   2.624   2.624   2.624   2.624   2.624   2.624   2.624   2.624   2.624   2.624   2.624   2.624   2.624   2.624   2.624   2.624   2.624   2.624   2.624   2.624   2.624
    84.58    2.624   2.624   2.624   2.624   2.624   2.624   2.624   2.624   2.624   2.624   2.624   2.624   2.624   2.624   2.624   2.624   2.624   2.624   2.624   2.624   2.624   2.624   2.624   2.624   2.624
    73.50    2.624   2.624   2.624   2.624   2.624   2.624   2.624   2.624   2.624   2.624   2.624   2.624   2.624   2.624   2.624   2.624   2.624   2.624   2.624   2.624   2.624   2.624   2.624   2.624   2.624
    62.42    2.624   2.624   2.624   2.624   2.624   2.624   2.624   2.624   2.624   2.624   2.624   2.624   2.624   2.624   2.624   2.624   2.624   2.624   2.624   2.624   2.624   2.624   2.624   2.624   2.624
    51.33    2.624   2.624   2.624   2.624   2.624   2.624   2.624   2.624   2.624   2.624   2.624   2.624   2.624   2.624   2.624   2.624   2.624   2.624   2.624   2.624   2.624   2.624   2.624   2.624   2.624
    40.25    2.624   2.624   2.624   2.624   2.624   2.624   2.624   2.624   2.624   2.624   2.624   2.624   2.624   2.624   2.624   2.624   2.624   2.624   2.624   2.624   2.624   2.624   2.624   2.624   2.624
    29.17    2.624   2.624   2.624   2.624   2.624   2.624   2.624   2.624   2.624   2.624   2.624   2.624   2.624   2.624   2.624   2.624   2.624   2.624   2.624   2.624   2.624   2.624   2.624   2.624   2.624
    18.08    2.624   2.624   2.624   2.624   2.624   2.624   2.624   2.624   2.624   2.624   2.624   2.624   2.624   2.624   2.624   2.624   2.624   2.624   2.624   2.624   2.624   2.624   2.624   2.624   2.624
     7.00    2.624   2.624   2.624   2.624   2.624   2.624   2.624   2.624   2.624   2.624   2.624   2.624   2.624   2.624   2.624   2.624   2.624   2.624   2.624   2.624   2.624   2.624   2.624   2.624   2.624

   Height   Standard deviation at grid points for the w component:
   273.00    1.649   1.649   1.649   1.649   1.649   1.649   1.649   1.649   1.649   1.649   1.649   1.649   1.649   1.649   1.649   1.649   1.649   1.649   1.649   1.649   1.649   1.649   1.649   1.649   1.649
   261.92    1.649   1.649   1.649   1.649   1.649   1.649   1.649   1.649   1.649   1.649   1.649   1.649   1.649   1.649   1.649   1.649   1.649   1.649   1.649   1.649   1.649   1.649   1.649   1.649   1.649
   250.83    1.649   1.649   1.649   1.649   1.649   1.649   1.649   1.649   1.649   1.649   1.649   1.649   1.649   1.649   1.649   1.649   1.649   1.649   1.649   1.649   1.649   1.649   1.649   1.649   1.649
   239.75    1.649   1.649   1.649   1.649   1.649   1.649   1.649   1.649   1.649   1.649   1.649   1.649   1.649   1.649   1.649   1.649   1.649   1.649   1.649   1.649   1.649   1.649   1.649   1.649   1.649
   228.67    1.649   1.649   1.649   1.649   1.649   1.649   1.649   1.649   1.649   1.649   1.649   1.649   1.649   1.649   1.649   1.649   1.649   1.649   1.649   1.649   1.649   1.649   1.649   1.649   1.649
   217.58    1.649   1.649   1.649   1.649   1.649   1.649   1.649   1.649   1.649   1.649   1.649   1.649   1.649   1.649   1.649   1.649   1.649   1.649   1.649   1.649   1.649   1.649   1.649   1.649   1.649
   206.50    1.649   1.649   1.649   1.649   1.649   1.649   1.649   1.649   1.649   1.649   1.649   1.649   1.649   1.649   1.649   1.649   1.649   1.649   1.649   1.649   1.649   1.649   1.649   1.649   1.649
   195.42    1.649   1.649   1.649   1.649   1.649   1.649   1.649   1.649   1.649   1.649   1.649   1.649   1.649   1.649   1.649   1.649   1.649   1.649   1.649   1.649   1.649   1.649   1.649   1.649   1.649
   184.33    1.649   1.649   1.649   1.649   1.649   1.649   1.649   1.649   1.649   1.649   1.649   1.649   1.649   1.649   1.649   1.649   1.649   1.649   1.649   1.649   1.649   1.649   1.649   1.649   1.649
   173.25    1.649   1.649   1.649   1.649   1.649   1.649   1.649   1.649   1.649   1.649   1.649   1.649   1.649   1.649   1.649   1.649   1.649   1.649   1.649   1.649   1.649   1.649   1.649   1.649   1.649
   162.17    1.649   1.649   1.649   1.649   1.649   1.649   1.649   1.649   1.649   1.649   1.649   1.649   1.649   1.649   1.649   1.649   1.649   1.649   1.649   1.649   1.649   1.649   1.649   1.649   1.649
   151.08    1.649   1.649   1.649   1.649   1.649   1.649   1.649   1.649   1.649   1.649   1.649   1.649   1.649   1.649   1.649   1.649   1.649   1.649   1.649   1.649   1.649   1.649   1.649   1.649   1.649
   140.00    1.649   1.649   1.649   1.649   1.649   1.649   1.649   1.649   1.649   1.649   1.649   1.649   1.649   1.649   1.649   1.649   1.649   1.649   1.649   1.649   1.649   1.649   1.649   1.649   1.649
   128.92    1.649   1.649   1.649   1.649   1.649   1.649   1.649   1.649   1.649   1.649   1.649   1.649   1.649   1.649   1.649   1.649   1.649   1.649   1.649   1.649   1.649   1.649   1.649   1.649   1.649
   117.83    1.649   1.649   1.649   1.649   1.649   1.649   1.649   1.649   1.649   1.649   1.649   1.649   1.649   1.649   1.649   1.649   1.649   1.649   1.649   1.649   1.649   1.649   1.649   1.649   1.649
   106.75    1.649   1.649   1.649   1.649   1.649   1.649   1.649   1.649   1.649   1.649   1.649   1.649   1.649   1.649   1.649   1.649   1.649   1.649   1.649   1.649   1.649   1.649   1.649   1.649   1.649
    95.67    1.649   1.649   1.649   1.649   1.649   1.649   1.649   1.649   1.649   1.649   1.649   1.649   1.649   1.649   1.649   1.649   1.649   1.649   1.649   1.649   1.649   1.649   1.649   1.649   1.649
    84.58    1.649   1.649   1.649   1.649   1.649   1.649   1.649   1.649   1.649   1.649   1.649   1.649   1.649   1.649   1.649   1.649   1.649   1.649   1.649   1.649   1.649   1.649   1.649   1.649   1.649
    73.50    1.649   1.649   1.649   1.649   1.649   1.649   1.649   1.649   1.649   1.649   1.649   1.649   1.649   1.649   1.649   1.649   1.649   1.649   1.649   1.649   1.649   1.649   1.649   1.649   1.649
    62.42    1.649   1.649   1.649   1.649   1.649   1.649   1.649   1.649   1.649   1.649   1.649   1.649   1.649   1.649   1.649   1.649   1.649   1.649   1.649   1.649   1.649   1.649   1.649   1.649   1.649
    51.33    1.649   1.649   1.649   1.649   1.649   1.649   1.649   1.649   1.649   1.649   1.649   1.649   1.649   1.649   1.649   1.649   1.649   1.649   1.649   1.649   1.649   1.649   1.649   1.649   1.649
    40.25    1.649   1.649   1.649   1.649   1.649   1.649   1.649   1.649   1.649   1.649   1.649   1.649   1.649   1.649   1.649   1.649   1.649   1.649   1.649   1.649   1.649   1.649   1.649   1.649   1.649
    29.17    1.649   1.649   1.649   1.649   1.649   1.649   1.649   1.649   1.649   1.649   1.649   1.649   1.649   1.649   1.649   1.649   1.649   1.649   1.649   1.649   1.649   1.649   1.649   1.649   1.649
    18.08    1.649   1.649   1.649   1.649   1.649   1.649   1.649   1.649   1.649   1.649   1.649   1.649   1.649   1.649   1.649   1.649   1.649   1.649   1.649   1.649   1.649   1.649   1.649   1.649   1.649
     7.00    1.649   1.649   1.649   1.649   1.649   1.649   1.649   1.649   1.649   1.649   1.649   1.649   1.649   1.649   1.649   1.649   1.649   1.649   1.649   1.649   1.649   1.649   1.649   1.649   1.649

   Mean standard deviation across all grid points:
      u component:    3.296 m/s
      v component:    2.624 m/s
      w component:    1.649 m/s


U-component (X) statistics from the interpolated hub point:

   Mean =  21.0000 m/s
   TI   =  17.7603 %


Processing complete.  54.388 CPU seconds used.
