
This summary file was generated by TurbSim (v2.00.08a-bjj, 18-Jul-2017) on 24-Jul-2020 at 16:41:58.


Runtime Options:

        12  Random seed #1
    RANLUX  Type of random number generator
         F  Output binary HH turbulence parameters?
         F  Output formatted turbulence parameters?
         F  Output AeroDyn HH files?
         T  Output AeroDyn FF files?
         F  Output BLADED FF files?
         F  Output tower data?
         F  Output formatted FF files?
         F  Output coherent turbulence time step file?
         T  Clockwise rotation when looking downwind?
 0 -  NONE  IEC turbulence models scaled to exact specified standard deviation


Turbine/Model Specifications:

        25  Vertical grid-point matrix dimension
        25  Horizontal grid-point matrix dimension
     0.050  Time step [seconds]
   180.000  Analysis time [seconds]
   180.000  Usable output time [seconds]
   140.000  Hub height [m]
   266.000  Grid height [m]
   266.000  Grid width [m]
     0.000  Vertical flow angle [degrees]
     0.000  Horizontal flow angle [degrees]


Meteorological Boundary Conditions:

    IECKAI  IEC Kaimal spectral model
         1  IEC standard: IEC 61400-1 Ed. 3: 2005
         A  IEC turbulence characteristic
       NTM  IEC Normal Turbulence Model
       N/A  IEC Extreme Turbulence Model (ETM) "c" parameter [m/s]
       PL   Wind profile type
   140.000  Reference height [m]
    21.000  Reference wind speed [m/s]
       N/A  Jet height [m]
     0.200  Power law exponent
     0.030  Surface roughness length [m]


Non-IEC Meteorological Boundary Conditions:

       N/A  Site latitude [degrees]
       N/A  Gradient Richardson number
       N/A  Friction or shear velocity [m/s]
       N/A  Mixing layer depth [m]
       N/A  Mean hub u'w' Reynolds stress
       N/A  Mean hub u'v' Reynolds stress
       N/A  Mean hub v'w' Reynolds stress


Spatial Coherence Models:

   GENERAL  u-component coherence model
   GENERAL  v-component coherence model
   GENERAL  w-component coherence model
(   12.000, 0.353E-03)  u-component coherence parameters
(*********,  0.00    )  v-component coherence parameters
(*********,  0.00    )  w-component coherence parameters
     0.000  Coherence exponent


You have requested that the following file(s) be generated:

   /home/mertzb/Documents/Analysis/BAR10/temp/Testing/Testing_powercurve_NTM_U21.000000_Seed12.0.bts (AeroDyn/TurbSim full-field wind file)


Turbulence Simulation Scaling Parameter Summary:

   Turbulence model used                            =  IEC Kaimal
   Turbulence characteristic                        =  A
   IEC turbulence type                              =  Normal Turbulence Model
   IEC standard                                     =  IEC 61400-1 Ed. 3: 2005
   Mean wind speed at hub height                    =   21.000 m/s
   Expected value of turbulence intensity at 15 m/s =   16.000%
   Characteristic value of standard deviation       =    3.416 m/s
   Turbulence scale                                 =   42.000 m
   u-component integral scale                       =  340.200 m
   Coherency scale                                  =  340.200 m
   Characteristic value of hub turbulence intensity =   16.267%
   Gradient Richardson number                       =    0.000

   Wind profile type                                =  Power law
   Power law exponent                               =    0.200
   Mean shear across rotor disk                     =    0.047 (m/s)/m
   Assumed rotor diameter                           =  266.000 m
   Surface roughness length                         =    0.030 m

   Nyquist frequency of turbulent wind field        =   10.000 Hz

   Number of time steps in the FFT                  =     3600
   Number of time steps output                      =     3600
   Number of points simulated                       =      625


Mean Flow Angles:

   Vertical   =   0.0 degrees
   Horizontal =   0.0 degrees

Mean Wind Speed Profile:

   Height    Wind Speed   Horizontal Angle  Vertical Angle  U-comp (X)   V-comp (Y)   W-comp (Z)
     (m)        (m/s)         (degrees)       (degrees)       (m/s)        (m/s)        (m/s)   
   ------    ----------   ----------------  --------------  ----------   ----------   ----------
    273.0       24.00            0.00            0.00         24.00         0.00         0.00
    261.9       23.80            0.00            0.00         23.80         0.00         0.00
    250.8       23.60            0.00            0.00         23.60         0.00         0.00
    239.8       23.39            0.00            0.00         23.39         0.00         0.00
    228.7       23.17            0.00            0.00         23.17         0.00         0.00
    217.6       22.94            0.00            0.00         22.94         0.00         0.00
    206.5       22.70            0.00            0.00         22.70         0.00         0.00
    195.4       22.45            0.00            0.00         22.45         0.00         0.00
    184.3       22.19            0.00            0.00         22.19         0.00         0.00
    173.2       21.91            0.00            0.00         21.91         0.00         0.00
    162.2       21.63            0.00            0.00         21.63         0.00         0.00
    151.1       21.32            0.00            0.00         21.32         0.00         0.00
    140.0       21.00            0.00            0.00         21.00         0.00         0.00
    128.9       20.66            0.00            0.00         20.66         0.00         0.00
    117.8       20.29            0.00            0.00         20.29         0.00         0.00
    106.8       19.89            0.00            0.00         19.89         0.00         0.00
     95.7       19.46            0.00            0.00         19.46         0.00         0.00
     84.6       18.99            0.00            0.00         18.99         0.00         0.00
     73.5       18.46            0.00            0.00         18.46         0.00         0.00
     62.4       17.87            0.00            0.00         17.87         0.00         0.00
     51.3       17.18            0.00            0.00         17.18         0.00         0.00
     40.2       16.37            0.00            0.00         16.37         0.00         0.00
     29.2       15.35            0.00            0.00         15.35         0.00         0.00
     18.1       13.95            0.00            0.00         13.95         0.00         0.00
      7.0       11.53            0.00            0.00         11.53         0.00         0.00


Harvested Random Seeds after Generation of the Random Numbers:

     31359375 K 1
            0 K 2


Hub-Height Simulated Turbulence Statistical Summary:

   Type of Wind        Min (m/s)   Mean (m/s)    Max (m/s)  Sigma (m/s)       TI (%)
   ----------------    ---------   ----------    ---------  -----------       ------
   Longitudinal (u)        13.52        21.00        29.57        2.964       14.116
   Lateral (v)             -9.20        -0.00         9.24        2.624       12.494
   Vertical (w)            -5.19        -0.00         5.39        1.649        7.851
   U component             13.52        21.00        29.57        2.964       14.116
   V component             -9.20        -0.00         9.24        2.624       12.494
   W component             -5.19        -0.00         5.39        1.649        7.851
   Horizontal (U&V)        13.53        21.17        29.67        2.926       13.820
   Total                   13.56        21.23        29.70        2.919       13.747

                       Min Reynolds     Mean Reynolds    Max Reynolds    Correlation
   Product             Stress (m/s)^2   Stress (m/s)^2   Stress (m/s)^2  Coefficient
   ----------------    --------------   --------------   --------------  -----------
   u'w'                    -24.455            -0.402            29.423        -0.082
   u'v'                    -51.017            -0.877            33.318        -0.113
   v'w'                    -26.446             0.039            21.334         0.009


   Friction Velocity (Ustar)  =      0.634 m/s
   Maximum Instantaneous TKE  =     56.007 (m/s)^2
   Maximum Instantaneous CTKE =     25.514 (m/s)^2


Grid Point Variance Summary:

   Y-coord -133.00 -121.92 -110.83  -99.75  -88.67  -77.58  -66.50  -55.42  -44.33  -33.25  -22.17  -11.08    0.00   11.08   22.17   33.25   44.33   55.42   66.50   77.58   88.67   99.75  110.83  121.92  133.00

   Height   Standard deviation at grid points for the u component:
   273.00    2.279   2.681   2.686   3.148   3.318   3.456   3.294   3.114   3.316   3.008   2.755   2.758   2.577   2.657   2.913   2.963   2.870   3.120   3.131   2.791   2.694   2.752   2.835   2.873   2.934
   261.92    2.251   2.483   2.853   3.231   3.205   3.293   3.214   3.221   3.151   2.925   2.841   2.742   2.797   2.822   3.001   3.163   3.296   3.050   3.412   2.860   2.746   3.028   3.184   3.034   3.245
   250.83    3.014   2.640   2.990   3.272   3.240   3.078   3.249   2.676   2.689   2.926   3.033   2.702   2.874   3.050   3.153   3.518   3.418   3.124   3.071   3.088   2.919   3.310   2.822   2.941   3.221
   239.75    3.506   2.957   2.750   3.200   2.985   2.928   2.963   3.012   2.887   3.109   3.180   2.696   2.906   3.445   3.051   3.089   3.405   3.577   3.307   3.311   3.244   3.074   2.910   2.987   3.264
   228.67    3.326   3.017   2.633   3.003   2.822   2.956   3.066   2.983   3.124   3.290   3.384   3.107   3.338   3.459   3.363   3.342   3.348   3.396   3.429   3.487   3.021   3.349   3.130   3.049   3.234
   217.58    3.095   3.116   3.055   2.943   2.971   3.068   3.236   3.017   2.947   2.953   3.106   3.237   3.700   3.572   3.784   3.120   3.221   3.329   3.130   3.025   2.807   3.188   2.903   3.084   3.303
   206.50    2.852   2.976   3.018   2.911   2.988   3.012   3.025   3.233   3.286   3.252   3.162   3.612   3.725   3.553   3.281   3.108   3.116   3.413   3.156   2.978   2.808   2.870   3.203   3.006   3.394
   195.42    3.060   2.995   3.009   3.128   3.212   2.922   2.636   3.022   3.062   3.359   3.400   3.729   3.521   3.474   3.557   3.400   2.956   3.111   3.292   2.900   2.896   2.543   2.851   2.959   3.077
   184.33    2.832   3.090   3.181   3.011   3.199   2.940   2.750   3.023   2.804   3.212   3.243   3.271   3.373   3.372   3.474   3.059   2.786   2.981   3.004   2.785   2.479   2.445   2.447   2.687   3.079
   173.25    3.363   3.362   3.076   3.002   3.086   2.971   3.155   3.362   3.227   3.088   3.236   2.937   3.091   3.114   3.010   2.985   2.925   2.803   2.649   2.759   2.208   2.326   2.450   2.708   2.736
   162.17    3.609   3.335   3.215   3.181   3.134   3.107   3.365   3.166   3.263   3.024   2.876   2.700   2.741   2.910   3.147   2.895   3.112   2.644   2.628   2.623   2.626   2.541   2.635   2.611   2.827
   151.08    3.646   3.505   3.410   3.106   3.287   3.482   3.421   3.493   3.019   2.934   2.676   2.539   2.881   2.771   3.031   2.939   2.843   2.613   2.631   3.165   2.928   2.766   2.824   2.763   2.645
   140.00    3.652   3.438   3.482   3.426   3.014   3.272   3.457   3.386   3.172   3.198   2.848   3.043   2.964   2.858   2.800   3.099   3.320   3.068   2.971   3.209   2.875   2.888   2.805   2.570   2.345
   128.92    3.619   3.653   3.875   3.541   3.040   3.335   3.381   3.359   3.585   3.517   3.290   3.051   2.822   2.777   2.612   2.981   3.126   3.339   3.164   3.192   3.316   3.093   3.083   3.070   2.897
   117.83    3.631   3.771   3.889   3.391   3.166   3.036   2.882   2.987   3.379   3.406   3.048   2.734   2.759   2.936   3.249   3.144   2.955   3.236   3.105   3.108   3.100   2.924   2.962   3.162   3.280
   106.75    3.985   3.746   3.527   3.503   3.647   3.426   3.108   3.002   3.189   3.398   3.182   2.678   2.845   3.137   3.448   3.479   3.325   3.810   3.509   3.548   3.074   2.471   3.219   3.326   3.608
    95.67    3.545   3.612   3.752   3.429   3.660   3.384   3.184   3.299   3.348   3.379   3.023   2.941   2.889   3.412   3.469   3.501   3.479   3.653   3.548   3.295   3.023   2.866   2.991   3.506   3.644
    84.58    3.980   3.600   3.076   3.326   3.540   3.456   3.552   3.379   3.085   3.090   3.123   2.870   2.961   3.592   4.378   4.088   3.651   3.542   3.362   3.209   2.894   2.959   3.058   3.309   3.543
    73.50    3.967   3.365   3.265   3.270   3.147   3.340   3.544   3.580   3.220   3.358   3.456   3.374   3.520   3.952   4.184   3.999   4.004   3.767   3.812   3.784   3.472   3.128   3.330   3.231   3.397
    62.42    3.904   3.599   2.998   3.349   3.469   3.407   3.538   3.122   3.375   3.411   3.655   3.642   3.704   4.236   4.262   4.069   3.849   3.841   3.568   3.377   3.569   3.130   3.270   2.821   3.070
    51.33    3.780   3.404   2.971   3.364   3.448   3.222   3.224   3.105   2.907   3.322   3.246   3.330   3.897   4.187   4.340   4.026   4.064   3.649   3.396   3.667   3.515   3.435   3.514   3.111   2.920
    40.25    3.763   3.193   3.087   2.908   2.946   3.037   3.093   2.992   3.298   3.312   3.206   3.389   3.872   3.782   4.235   3.777   3.776   3.737   3.614   3.551   3.555   3.208   3.354   3.215   3.055
    29.17    3.287   3.264   3.253   2.969   3.191   3.016   2.998   2.987   2.852   3.242   3.698   3.339   3.592   4.159   4.132   4.038   4.205   4.310   3.784   3.939   3.666   3.561   3.326   3.364   2.965
    18.08    3.213   3.571   3.247   2.970   2.906   2.721   2.648   2.874   2.910   3.136   3.315   3.478   3.525   3.847   4.124   3.986   4.116   3.838   4.117   3.884   3.778   3.517   3.513   3.638   3.364
     7.00    3.123   3.039   3.122   3.063   2.967   2.379   2.650   2.874   3.096   3.359   3.220   3.229   3.372   3.458   3.632   3.806   3.660   3.862   3.647   3.752   3.768   3.166   3.581   3.149   3.466

   Height   Standard deviation at grid points for the v component:
   273.00    2.624   2.624   2.624   2.624   2.624   2.624   2.624   2.624   2.624   2.624   2.624   2.624   2.624   2.624   2.624   2.624   2.624   2.624   2.624   2.624   2.624   2.624   2.624   2.624   2.624
   261.92    2.624   2.624   2.624   2.624   2.624   2.624   2.624   2.624   2.624   2.624   2.624   2.624   2.624   2.624   2.624   2.624   2.624   2.624   2.624   2.624   2.624   2.624   2.624   2.624   2.624
   250.83    2.624   2.624   2.624   2.624   2.624   2.624   2.624   2.624   2.624   2.624   2.624   2.624   2.624   2.624   2.624   2.624   2.624   2.624   2.624   2.624   2.624   2.624   2.624   2.624   2.624
   239.75    2.624   2.624   2.624   2.624   2.624   2.624   2.624   2.624   2.624   2.624   2.624   2.624   2.624   2.624   2.624   2.624   2.624   2.624   2.624   2.624   2.624   2.624   2.624   2.624   2.624
   228.67    2.624   2.624   2.624   2.624   2.624   2.624   2.624   2.624   2.624   2.624   2.624   2.624   2.624   2.624   2.624   2.624   2.624   2.624   2.624   2.624   2.624   2.624   2.624   2.624   2.624
   217.58    2.624   2.624   2.624   2.624   2.624   2.624   2.624   2.624   2.624   2.624   2.624   2.624   2.624   2.624   2.624   2.624   2.624   2.624   2.624   2.624   2.624   2.624   2.624   2.624   2.624
   206.50    2.624   2.624   2.624   2.624   2.624   2.624   2.624   2.624   2.624   2.624   2.624   2.624   2.624   2.624   2.624   2.624   2.624   2.624   2.624   2.624   2.624   2.624   2.624   2.624   2.624
   195.42    2.624   2.624   2.624   2.624   2.624   2.624   2.624   2.624   2.624   2.624   2.624   2.624   2.624   2.624   2.624   2.624   2.624   2.624   2.624   2.624   2.624   2.624   2.624   2.624   2.624
   184.33    2.624   2.624   2.624   2.624   2.624   2.624   2.624   2.624   2.624   2.624   2.624   2.624   2.624   2.624   2.624   2.624   2.624   2.624   2.624   2.624   2.624   2.624   2.624   2.624   2.624
   173.25    2.624   2.624   2.624   2.624   2.624   2.624   2.624   2.624   2.624   2.624   2.624   2.624   2.624   2.624   2.624   2.624   2.624   2.624   2.624   2.624   2.624   2.624   2.624   2.624   2.624
   162.17    2.624   2.624   2.624   2.624   2.624   2.624   2.624   2.624   2.624   2.624   2.624   2.624   2.624   2.624   2.624   2.624   2.624   2.624   2.624   2.624   2.624   2.624   2.624   2.624   2.624
   151.08    2.624   2.624   2.624   2.624   2.624   2.624   2.624   2.624   2.624   2.624   2.624   2.624   2.624   2.624   2.624   2.624   2.624   2.624   2.624   2.624   2.624   2.624   2.624   2.624   2.624
   140.00    2.624   2.624   2.624   2.624   2.624   2.624   2.624   2.624   2.624   2.624   2.624   2.624   2.624   2.624   2.624   2.624   2.624   2.624   2.624   2.624   2.624   2.624   2.624   2.624   2.624
   128.92    2.624   2.624   2.624   2.624   2.624   2.624   2.624   2.624   2.624   2.624   2.624   2.624   2.624   2.624   2.624   2.624   2.624   2.624   2.624   2.624   2.624   2.624   2.624   2.624   2.624
   117.83    2.624   2.624   2.624   2.624   2.624   2.624   2.624   2.624   2.624   2.624   2.624   2.624   2.624   2.624   2.624   2.624   2.624   2.624   2.624   2.624   2.624   2.624   2.624   2.624   2.624
   106.75    2.624   2.624   2.624   2.624   2.624   2.624   2.624   2.624   2.624   2.624   2.624   2.624   2.624   2.624   2.624   2.624   2.624   2.624   2.624   2.624   2.624   2.624   2.624   2.624   2.624
    95.67    2.624   2.624   2.624   2.624   2.624   2.624   2.624   2.624   2.624   2.624   2.624   2.624   2.624   2.624   2.624   2.624   2.624   2.624   2.624   2.624   2.624   2.624   2.624   2.624   2.624
    84.58    2.624   2.624   2.624   2.624   2.624   2.624   2.624   2.624   2.624   2.624   2.624   2.624   2.624   2.624   2.624   2.624   2.624   2.624   2.624   2.624   2.624   2.624   2.624   2.624   2.624
    73.50    2.624   2.624   2.624   2.624   2.624   2.624   2.624   2.624   2.624   2.624   2.624   2.624   2.624   2.624   2.624   2.624   2.624   2.624   2.624   2.624   2.624   2.624   2.624   2.624   2.624
    62.42    2.624   2.624   2.624   2.624   2.624   2.624   2.624   2.624   2.624   2.624   2.624   2.624   2.624   2.624   2.624   2.624   2.624   2.624   2.624   2.624   2.624   2.624   2.624   2.624   2.624
    51.33    2.624   2.624   2.624   2.624   2.624   2.624   2.624   2.624   2.624   2.624   2.624   2.624   2.624   2.624   2.624   2.624   2.624   2.624   2.624   2.624   2.624   2.624   2.624   2.624   2.624
    40.25    2.624   2.624   2.624   2.624   2.624   2.624   2.624   2.624   2.624   2.624   2.624   2.624   2.624   2.624   2.624   2.624   2.624   2.624   2.624   2.624   2.624   2.624   2.624   2.624   2.624
    29.17    2.624   2.624   2.624   2.624   2.624   2.624   2.624   2.624   2.624   2.624   2.624   2.624   2.624   2.624   2.624   2.624   2.624   2.624   2.624   2.624   2.624   2.624   2.624   2.624   2.624
    18.08    2.624   2.624   2.624   2.624   2.624   2.624   2.624   2.624   2.624   2.624   2.624   2.624   2.624   2.624   2.624   2.624   2.624   2.624   2.624   2.624   2.624   2.624   2.624   2.624   2.624
     7.00    2.624   2.624   2.624   2.624   2.624   2.624   2.624   2.624   2.624   2.624   2.624   2.624   2.624   2.624   2.624   2.624   2.624   2.624   2.624   2.624   2.624   2.624   2.624   2.624   2.624

   Height   Standard deviation at grid points for the w component:
   273.00    1.649   1.649   1.649   1.649   1.649   1.649   1.649   1.649   1.649   1.649   1.649   1.649   1.649   1.649   1.649   1.649   1.649   1.649   1.649   1.649   1.649   1.649   1.649   1.649   1.649
   261.92    1.649   1.649   1.649   1.649   1.649   1.649   1.649   1.649   1.649   1.649   1.649   1.649   1.649   1.649   1.649   1.649   1.649   1.649   1.649   1.649   1.649   1.649   1.649   1.649   1.649
   250.83    1.649   1.649   1.649   1.649   1.649   1.649   1.649   1.649   1.649   1.649   1.649   1.649   1.649   1.649   1.649   1.649   1.649   1.649   1.649   1.649   1.649   1.649   1.649   1.649   1.649
   239.75    1.649   1.649   1.649   1.649   1.649   1.649   1.649   1.649   1.649   1.649   1.649   1.649   1.649   1.649   1.649   1.649   1.649   1.649   1.649   1.649   1.649   1.649   1.649   1.649   1.649
   228.67    1.649   1.649   1.649   1.649   1.649   1.649   1.649   1.649   1.649   1.649   1.649   1.649   1.649   1.649   1.649   1.649   1.649   1.649   1.649   1.649   1.649   1.649   1.649   1.649   1.649
   217.58    1.649   1.649   1.649   1.649   1.649   1.649   1.649   1.649   1.649   1.649   1.649   1.649   1.649   1.649   1.649   1.649   1.649   1.649   1.649   1.649   1.649   1.649   1.649   1.649   1.649
   206.50    1.649   1.649   1.649   1.649   1.649   1.649   1.649   1.649   1.649   1.649   1.649   1.649   1.649   1.649   1.649   1.649   1.649   1.649   1.649   1.649   1.649   1.649   1.649   1.649   1.649
   195.42    1.649   1.649   1.649   1.649   1.649   1.649   1.649   1.649   1.649   1.649   1.649   1.649   1.649   1.649   1.649   1.649   1.649   1.649   1.649   1.649   1.649   1.649   1.649   1.649   1.649
   184.33    1.649   1.649   1.649   1.649   1.649   1.649   1.649   1.649   1.649   1.649   1.649   1.649   1.649   1.649   1.649   1.649   1.649   1.649   1.649   1.649   1.649   1.649   1.649   1.649   1.649
   173.25    1.649   1.649   1.649   1.649   1.649   1.649   1.649   1.649   1.649   1.649   1.649   1.649   1.649   1.649   1.649   1.649   1.649   1.649   1.649   1.649   1.649   1.649   1.649   1.649   1.649
   162.17    1.649   1.649   1.649   1.649   1.649   1.649   1.649   1.649   1.649   1.649   1.649   1.649   1.649   1.649   1.649   1.649   1.649   1.649   1.649   1.649   1.649   1.649   1.649   1.649   1.649
   151.08    1.649   1.649   1.649   1.649   1.649   1.649   1.649   1.649   1.649   1.649   1.649   1.649   1.649   1.649   1.649   1.649   1.649   1.649   1.649   1.649   1.649   1.649   1.649   1.649   1.649
   140.00    1.649   1.649   1.649   1.649   1.649   1.649   1.649   1.649   1.649   1.649   1.649   1.649   1.649   1.649   1.649   1.649   1.649   1.649   1.649   1.649   1.649   1.649   1.649   1.649   1.649
   128.92    1.649   1.649   1.649   1.649   1.649   1.649   1.649   1.649   1.649   1.649   1.649   1.649   1.649   1.649   1.649   1.649   1.649   1.649   1.649   1.649   1.649   1.649   1.649   1.649   1.649
   117.83    1.649   1.649   1.649   1.649   1.649   1.649   1.649   1.649   1.649   1.649   1.649   1.649   1.649   1.649   1.649   1.649   1.649   1.649   1.649   1.649   1.649   1.649   1.649   1.649   1.649
   106.75    1.649   1.649   1.649   1.649   1.649   1.649   1.649   1.649   1.649   1.649   1.649   1.649   1.649   1.649   1.649   1.649   1.649   1.649   1.649   1.649   1.649   1.649   1.649   1.649   1.649
    95.67    1.649   1.649   1.649   1.649   1.649   1.649   1.649   1.649   1.649   1.649   1.649   1.649   1.649   1.649   1.649   1.649   1.649   1.649   1.649   1.649   1.649   1.649   1.649   1.649   1.649
    84.58    1.649   1.649   1.649   1.649   1.649   1.649   1.649   1.649   1.649   1.649   1.649   1.649   1.649   1.649   1.649   1.649   1.649   1.649   1.649   1.649   1.649   1.649   1.649   1.649   1.649
    73.50    1.649   1.649   1.649   1.649   1.649   1.649   1.649   1.649   1.649   1.649   1.649   1.649   1.649   1.649   1.649   1.649   1.649   1.649   1.649   1.649   1.649   1.649   1.649   1.649   1.649
    62.42    1.649   1.649   1.649   1.649   1.649   1.649   1.649   1.649   1.649   1.649   1.649   1.649   1.649   1.649   1.649   1.649   1.649   1.649   1.649   1.649   1.649   1.649   1.649   1.649   1.649
    51.33    1.649   1.649   1.649   1.649   1.649   1.649   1.649   1.649   1.649   1.649   1.649   1.649   1.649   1.649   1.649   1.649   1.649   1.649   1.649   1.649   1.649   1.649   1.649   1.649   1.649
    40.25    1.649   1.649   1.649   1.649   1.649   1.649   1.649   1.649   1.649   1.649   1.649   1.649   1.649   1.649   1.649   1.649   1.649   1.649   1.649   1.649   1.649   1.649   1.649   1.649   1.649
    29.17    1.649   1.649   1.649   1.649   1.649   1.649   1.649   1.649   1.649   1.649   1.649   1.649   1.649   1.649   1.649   1.649   1.649   1.649   1.649   1.649   1.649   1.649   1.649   1.649   1.649
    18.08    1.649   1.649   1.649   1.649   1.649   1.649   1.649   1.649   1.649   1.649   1.649   1.649   1.649   1.649   1.649   1.649   1.649   1.649   1.649   1.649   1.649   1.649   1.649   1.649   1.649
     7.00    1.649   1.649   1.649   1.649   1.649   1.649   1.649   1.649   1.649   1.649   1.649   1.649   1.649   1.649   1.649   1.649   1.649   1.649   1.649   1.649   1.649   1.649   1.649   1.649   1.649

   Mean standard deviation across all grid points:
      u component:    3.213 m/s
      v component:    2.624 m/s
      w component:    1.649 m/s


U-component (X) statistics from the interpolated hub point:

   Mean =  21.0000 m/s
   TI   =  14.1159 %


Processing complete.  54.333 CPU seconds used.
