
This summary file was generated by TurbSim (v2.00.08a-bjj, 18-Jul-2017) on 24-Jul-2020 at 16:36:30.


Runtime Options:

        11  Random seed #1
    RANLUX  Type of random number generator
         F  Output binary HH turbulence parameters?
         F  Output formatted turbulence parameters?
         F  Output AeroDyn HH files?
         T  Output AeroDyn FF files?
         F  Output BLADED FF files?
         F  Output tower data?
         F  Output formatted FF files?
         F  Output coherent turbulence time step file?
         T  Clockwise rotation when looking downwind?
 0 -  NONE  IEC turbulence models scaled to exact specified standard deviation


Turbine/Model Specifications:

        25  Vertical grid-point matrix dimension
        25  Horizontal grid-point matrix dimension
     0.050  Time step [seconds]
   180.000  Analysis time [seconds]
   180.000  Usable output time [seconds]
   140.000  Hub height [m]
   266.000  Grid height [m]
   266.000  Grid width [m]
     0.000  Vertical flow angle [degrees]
     0.000  Horizontal flow angle [degrees]


Meteorological Boundary Conditions:

    IECKAI  IEC Kaimal spectral model
         1  IEC standard: IEC 61400-1 Ed. 3: 2005
         A  IEC turbulence characteristic
       NTM  IEC Normal Turbulence Model
       N/A  IEC Extreme Turbulence Model (ETM) "c" parameter [m/s]
       PL   Wind profile type
   140.000  Reference height [m]
    15.000  Reference wind speed [m/s]
       N/A  Jet height [m]
     0.200  Power law exponent
     0.030  Surface roughness length [m]


Non-IEC Meteorological Boundary Conditions:

       N/A  Site latitude [degrees]
       N/A  Gradient Richardson number
       N/A  Friction or shear velocity [m/s]
       N/A  Mixing layer depth [m]
       N/A  Mean hub u'w' Reynolds stress
       N/A  Mean hub u'v' Reynolds stress
       N/A  Mean hub v'w' Reynolds stress


Spatial Coherence Models:

   GENERAL  u-component coherence model
   GENERAL  v-component coherence model
   GENERAL  w-component coherence model
(   12.000, 0.353E-03)  u-component coherence parameters
(*********,  0.00    )  v-component coherence parameters
(*********,  0.00    )  w-component coherence parameters
     0.000  Coherence exponent


You have requested that the following file(s) be generated:

   /home/mertzb/Documents/Analysis/BAR10/temp/Testing/Testing_powercurve_NTM_U15.000000_Seed11.0.bts (AeroDyn/TurbSim full-field wind file)


Turbulence Simulation Scaling Parameter Summary:

   Turbulence model used                            =  IEC Kaimal
   Turbulence characteristic                        =  A
   IEC turbulence type                              =  Normal Turbulence Model
   IEC standard                                     =  IEC 61400-1 Ed. 3: 2005
   Mean wind speed at hub height                    =   15.000 m/s
   Expected value of turbulence intensity at 15 m/s =   16.000%
   Characteristic value of standard deviation       =    2.696 m/s
   Turbulence scale                                 =   42.000 m
   u-component integral scale                       =  340.200 m
   Coherency scale                                  =  340.200 m
   Characteristic value of hub turbulence intensity =   17.973%
   Gradient Richardson number                       =    0.000

   Wind profile type                                =  Power law
   Power law exponent                               =    0.200
   Mean shear across rotor disk                     =    0.033 (m/s)/m
   Assumed rotor diameter                           =  266.000 m
   Surface roughness length                         =    0.030 m

   Nyquist frequency of turbulent wind field        =   10.000 Hz

   Number of time steps in the FFT                  =     3600
   Number of time steps output                      =     3600
   Number of points simulated                       =      625


Mean Flow Angles:

   Vertical   =   0.0 degrees
   Horizontal =   0.0 degrees

Mean Wind Speed Profile:

   Height    Wind Speed   Horizontal Angle  Vertical Angle  U-comp (X)   V-comp (Y)   W-comp (Z)
     (m)        (m/s)         (degrees)       (degrees)       (m/s)        (m/s)        (m/s)   
   ------    ----------   ----------------  --------------  ----------   ----------   ----------
    273.0       17.14            0.00            0.00         17.14         0.00         0.00
    261.9       17.00            0.00            0.00         17.00         0.00         0.00
    250.8       16.86            0.00            0.00         16.86         0.00         0.00
    239.8       16.70            0.00            0.00         16.70         0.00         0.00
    228.7       16.55            0.00            0.00         16.55         0.00         0.00
    217.6       16.38            0.00            0.00         16.38         0.00         0.00
    206.5       16.21            0.00            0.00         16.21         0.00         0.00
    195.4       16.03            0.00            0.00         16.03         0.00         0.00
    184.3       15.85            0.00            0.00         15.85         0.00         0.00
    173.2       15.65            0.00            0.00         15.65         0.00         0.00
    162.2       15.45            0.00            0.00         15.45         0.00         0.00
    151.1       15.23            0.00            0.00         15.23         0.00         0.00
    140.0       15.00            0.00            0.00         15.00         0.00         0.00
    128.9       14.75            0.00            0.00         14.75         0.00         0.00
    117.8       14.49            0.00            0.00         14.49         0.00         0.00
    106.8       14.21            0.00            0.00         14.21         0.00         0.00
     95.7       13.90            0.00            0.00         13.90         0.00         0.00
     84.6       13.56            0.00            0.00         13.56         0.00         0.00
     73.5       13.19            0.00            0.00         13.19         0.00         0.00
     62.4       12.76            0.00            0.00         12.76         0.00         0.00
     51.3       12.27            0.00            0.00         12.27         0.00         0.00
     40.2       11.69            0.00            0.00         11.69         0.00         0.00
     29.2       10.96            0.00            0.00         10.96         0.00         0.00
     18.1        9.96            0.00            0.00          9.96         0.00         0.00
      7.0        8.24            0.00            0.00          8.24         0.00         0.00


Harvested Random Seeds after Generation of the Random Numbers:

     31359375 K 1
            0 K 2


Hub-Height Simulated Turbulence Statistical Summary:

   Type of Wind        Min (m/s)   Mean (m/s)    Max (m/s)  Sigma (m/s)       TI (%)
   ----------------    ---------   ----------    ---------  -----------       ------
   Longitudinal (u)         6.94        15.00        22.64        2.871       19.142
   Lateral (v)             -5.82         0.00         6.28        2.052       13.678
   Vertical (w)            -3.82         0.00         5.24        1.305        8.698
   U component              6.94        15.00        22.64        2.871       19.142
   V component             -5.82         0.00         6.28        2.052       13.678
   W component             -3.82         0.00         5.24        1.305        8.698
   Horizontal (U&V)         7.40        15.15        22.65        2.836       18.721
   Total                    7.49        15.21        22.82        2.821       18.550

                       Min Reynolds     Mean Reynolds    Max Reynolds    Correlation
   Product             Stress (m/s)^2   Stress (m/s)^2   Stress (m/s)^2  Coefficient
   ----------------    --------------   --------------   --------------  -----------
   u'w'                    -27.015            -0.430            11.955        -0.115
   u'v'                    -33.850             0.501            27.033         0.085
   v'w'                    -15.970            -0.035            16.368        -0.013


   Friction Velocity (Ustar)  =      0.656 m/s
   Maximum Instantaneous TKE  =     40.387 (m/s)^2
   Maximum Instantaneous CTKE =     18.480 (m/s)^2


Grid Point Variance Summary:

   Y-coord -133.00 -121.92 -110.83  -99.75  -88.67  -77.58  -66.50  -55.42  -44.33  -33.25  -22.17  -11.08    0.00   11.08   22.17   33.25   44.33   55.42   66.50   77.58   88.67   99.75  110.83  121.92  133.00

   Height   Standard deviation at grid points for the u component:
   273.00    2.833   2.864   2.582   2.494   2.895   2.763   2.357   2.320   2.690   2.428   2.496   2.187   2.488   2.328   2.031   2.332   2.414   2.565   2.683   2.582   2.683   2.593   2.565   2.596   2.609
   261.92    3.096   2.853   2.816   2.771   3.135   3.133   2.859   2.534   3.053   2.597   2.254   2.193   2.417   2.213   2.185   2.373   2.450   2.631   2.567   2.596   2.936   2.829   2.599   2.500   2.710
   250.83    2.967   2.755   2.930   3.060   2.989   2.990   2.634   2.873   2.839   2.534   2.367   2.261   2.434   2.412   2.798   2.582   2.402   2.677   2.809   2.757   2.376   2.565   2.607   2.305   2.512
   239.75    2.711   2.583   2.778   2.651   2.379   2.658   2.696   2.743   2.357   2.684   2.527   2.659   2.383   2.698   2.924   2.991   2.638   3.119   2.609   2.461   2.532   2.317   2.426   2.304   2.604
   228.67    2.431   2.150   2.438   2.571   2.453   2.663   2.579   2.428   2.782   2.759   2.820   2.824   2.227   2.639   2.860   2.957   3.248   2.834   3.071   2.409   2.373   1.984   2.101   2.087   2.476
   217.58    2.280   2.387   2.408   2.460   2.545   2.562   2.058   2.468   2.891   2.923   2.890   2.713   2.535   2.523   2.700   2.869   3.052   2.879   2.927   2.638   2.300   1.886   1.887   2.204   2.179
   206.50    2.534   2.590   2.630   2.480   2.732   2.386   2.074   2.297   2.610   2.636   3.059   3.177   2.828   2.556   2.865   3.011   2.791   2.932   2.744   2.331   2.324   1.972   2.284   2.122   2.478
   195.42    2.712   2.491   2.495   2.229   2.282   2.551   2.384   2.730   2.538   2.819   2.822   2.974   2.959   2.397   2.761   2.791   3.059   2.788   2.631   2.129   2.075   2.272   2.194   2.173   2.227
   184.33    2.637   2.354   2.095   2.061   2.191   2.565   2.500   3.161   3.025   3.096   3.050   2.923   2.802   2.621   2.656   2.536   2.642   2.658   2.634   2.182   2.373   2.068   2.041   2.278   2.192
   173.25    2.531   2.357   2.368   1.969   2.457   2.453   2.934   3.333   3.223   2.911   3.018   3.030   2.852   3.038   2.740   2.553   2.540   2.694   2.489   2.236   2.279   2.310   2.088   2.280   2.474
   162.17    2.270   2.028   2.287   2.195   2.488   2.889   2.933   3.159   3.550   3.334   3.120   2.980   3.046   3.229   2.971   2.946   2.619   2.250   2.360   2.196   2.467   2.314   2.655   2.622   2.326
   151.08    2.205   2.156   1.965   2.258   2.537   2.808   2.933   2.861   3.301   3.744   3.472   3.304   3.146   3.078   3.104   2.941   2.696   2.400   2.199   2.294   2.348   2.310   2.535   2.532   2.659
   140.00    2.241   1.792   1.799   2.330   2.399   2.479   2.734   3.301   3.614   3.790   3.495   3.268   2.871   2.468   2.698   2.661   2.594   2.225   2.180   2.050   2.386   2.486   2.492   2.789   2.658
   128.92    2.015   1.829   1.908   2.384   2.781   2.671   2.767   2.987   3.361   3.508   3.658   3.141   2.646   2.590   2.469   2.506   2.031   2.358   2.241   2.287   2.422   2.553   2.601   2.584   2.671
   117.83    1.957   1.872   2.138   2.211   2.433   2.759   2.739   2.623   3.058   3.323   3.581   3.217   2.506   2.481   2.250   2.301   2.175   2.484   2.184   2.277   2.236   2.576   2.467   2.633   2.534
   106.75    2.345   2.276   2.174   2.344   2.293   2.343   2.638   2.765   2.760   2.960   3.061   2.907   2.624   2.552   2.153   2.260   2.209   2.223   2.191   2.493   2.557   2.505   2.220   2.309   2.517
    95.67    2.437   2.321   2.553   2.322   2.391   2.419   2.465   2.277   2.496   2.477   2.639   2.331   2.269   2.103   2.204   2.338   2.345   2.266   1.978   2.141   2.586   2.425   2.550   2.550   2.495
    84.58    2.319   2.468   2.473   2.345   2.139   2.283   2.116   2.257   2.406   2.351   2.128   2.302   2.321   2.252   2.605   2.540   1.848   2.052   2.127   2.194   2.518   2.595   2.446   2.629   2.656
    73.50    2.700   2.577   2.506   2.203   2.454   2.512   2.311   2.053   2.407   2.397   2.493   2.610   2.206   2.210   2.387   2.493   2.211   2.518   2.549   2.313   2.416   2.567   2.341   2.559   2.696
    62.42    2.579   2.448   2.534   2.540   2.746   2.502   2.684   2.571   2.671   2.842   2.731   2.446   2.424   1.976   2.341   2.277   2.154   2.560   2.878   2.625   2.670   2.591   2.231   2.149   2.395
    51.33    2.480   2.714   2.666   2.347   2.811   2.781   2.725   2.402   2.541   2.518   2.408   2.309   1.871   1.822   2.365   2.331   2.332   2.527   2.560   2.730   2.555   2.500   2.184   2.186   2.149
    40.25    2.615   2.343   2.537   2.758   2.577   2.796   2.709   2.705   2.535   2.468   2.687   2.333   2.072   2.034   2.416   2.697   2.582   3.059   2.615   2.414   2.792   2.379   2.229   2.194   2.107
    29.17    2.626   2.355   2.311   2.639   2.695   2.571   2.651   2.631   2.538   2.441   2.331   2.276   2.368   2.027   2.483   2.319   2.380   2.852   2.509   2.574   2.370   2.567   2.367   2.169   1.964
    18.08    2.582   2.400   2.550   2.937   2.859   2.980   2.518   2.506   2.652   2.889   2.463   2.350   2.300   2.333   2.435   2.473   2.721   2.555   2.555   2.530   2.230   2.167   2.041   2.285   2.031
     7.00    2.395   2.091   2.446   2.800   2.963   3.217   3.099   2.893   2.708   2.780   2.989   2.470   2.076   2.374   2.269   2.058   2.252   2.191   2.071   2.453   2.086   2.096   1.843   2.077   2.006

   Height   Standard deviation at grid points for the v component:
   273.00    2.052   2.052   2.052   2.052   2.052   2.052   2.052   2.052   2.052   2.052   2.052   2.052   2.052   2.052   2.052   2.052   2.052   2.052   2.052   2.052   2.052   2.052   2.052   2.052   2.052
   261.92    2.052   2.052   2.052   2.052   2.052   2.052   2.052   2.052   2.052   2.052   2.052   2.052   2.052   2.052   2.052   2.052   2.052   2.052   2.052   2.052   2.052   2.052   2.052   2.052   2.052
   250.83    2.052   2.052   2.052   2.052   2.052   2.052   2.052   2.052   2.052   2.052   2.052   2.052   2.052   2.052   2.052   2.052   2.052   2.052   2.052   2.052   2.052   2.052   2.052   2.052   2.052
   239.75    2.052   2.052   2.052   2.052   2.052   2.052   2.052   2.052   2.052   2.052   2.052   2.052   2.052   2.052   2.052   2.052   2.052   2.052   2.052   2.052   2.052   2.052   2.052   2.052   2.052
   228.67    2.052   2.052   2.052   2.052   2.052   2.052   2.052   2.052   2.052   2.052   2.052   2.052   2.052   2.052   2.052   2.052   2.052   2.052   2.052   2.052   2.052   2.052   2.052   2.052   2.052
   217.58    2.052   2.052   2.052   2.052   2.052   2.052   2.052   2.052   2.052   2.052   2.052   2.052   2.052   2.052   2.052   2.052   2.052   2.052   2.052   2.052   2.052   2.052   2.052   2.052   2.052
   206.50    2.052   2.052   2.052   2.052   2.052   2.052   2.052   2.052   2.052   2.052   2.052   2.052   2.052   2.052   2.052   2.052   2.052   2.052   2.052   2.052   2.052   2.052   2.052   2.052   2.052
   195.42    2.052   2.052   2.052   2.052   2.052   2.052   2.052   2.052   2.052   2.052   2.052   2.052   2.052   2.052   2.052   2.052   2.052   2.052   2.052   2.052   2.052   2.052   2.052   2.052   2.052
   184.33    2.052   2.052   2.052   2.052   2.052   2.052   2.052   2.052   2.052   2.052   2.052   2.052   2.052   2.052   2.052   2.052   2.052   2.052   2.052   2.052   2.052   2.052   2.052   2.052   2.052
   173.25    2.052   2.052   2.052   2.052   2.052   2.052   2.052   2.052   2.052   2.052   2.052   2.052   2.052   2.052   2.052   2.052   2.052   2.052   2.052   2.052   2.052   2.052   2.052   2.052   2.052
   162.17    2.052   2.052   2.052   2.052   2.052   2.052   2.052   2.052   2.052   2.052   2.052   2.052   2.052   2.052   2.052   2.052   2.052   2.052   2.052   2.052   2.052   2.052   2.052   2.052   2.052
   151.08    2.052   2.052   2.052   2.052   2.052   2.052   2.052   2.052   2.052   2.052   2.052   2.052   2.052   2.052   2.052   2.052   2.052   2.052   2.052   2.052   2.052   2.052   2.052   2.052   2.052
   140.00    2.052   2.052   2.052   2.052   2.052   2.052   2.052   2.052   2.052   2.052   2.052   2.052   2.052   2.052   2.052   2.052   2.052   2.052   2.052   2.052   2.052   2.052   2.052   2.052   2.052
   128.92    2.052   2.052   2.052   2.052   2.052   2.052   2.052   2.052   2.052   2.052   2.052   2.052   2.052   2.052   2.052   2.052   2.052   2.052   2.052   2.052   2.052   2.052   2.052   2.052   2.052
   117.83    2.052   2.052   2.052   2.052   2.052   2.052   2.052   2.052   2.052   2.052   2.052   2.052   2.052   2.052   2.052   2.052   2.052   2.052   2.052   2.052   2.052   2.052   2.052   2.052   2.052
   106.75    2.052   2.052   2.052   2.052   2.052   2.052   2.052   2.052   2.052   2.052   2.052   2.052   2.052   2.052   2.052   2.052   2.052   2.052   2.052   2.052   2.052   2.052   2.052   2.052   2.052
    95.67    2.052   2.052   2.052   2.052   2.052   2.052   2.052   2.052   2.052   2.052   2.052   2.052   2.052   2.052   2.052   2.052   2.052   2.052   2.052   2.052   2.052   2.052   2.052   2.052   2.052
    84.58    2.052   2.052   2.052   2.052   2.052   2.052   2.052   2.052   2.052   2.052   2.052   2.052   2.052   2.052   2.052   2.052   2.052   2.052   2.052   2.052   2.052   2.052   2.052   2.052   2.052
    73.50    2.052   2.052   2.052   2.052   2.052   2.052   2.052   2.052   2.052   2.052   2.052   2.052   2.052   2.052   2.052   2.052   2.052   2.052   2.052   2.052   2.052   2.052   2.052   2.052   2.052
    62.42    2.052   2.052   2.052   2.052   2.052   2.052   2.052   2.052   2.052   2.052   2.052   2.052   2.052   2.052   2.052   2.052   2.052   2.052   2.052   2.052   2.052   2.052   2.052   2.052   2.052
    51.33    2.052   2.052   2.052   2.052   2.052   2.052   2.052   2.052   2.052   2.052   2.052   2.052   2.052   2.052   2.052   2.052   2.052   2.052   2.052   2.052   2.052   2.052   2.052   2.052   2.052
    40.25    2.052   2.052   2.052   2.052   2.052   2.052   2.052   2.052   2.052   2.052   2.052   2.052   2.052   2.052   2.052   2.052   2.052   2.052   2.052   2.052   2.052   2.052   2.052   2.052   2.052
    29.17    2.052   2.052   2.052   2.052   2.052   2.052   2.052   2.052   2.052   2.052   2.052   2.052   2.052   2.052   2.052   2.052   2.052   2.052   2.052   2.052   2.052   2.052   2.052   2.052   2.052
    18.08    2.052   2.052   2.052   2.052   2.052   2.052   2.052   2.052   2.052   2.052   2.052   2.052   2.052   2.052   2.052   2.052   2.052   2.052   2.052   2.052   2.052   2.052   2.052   2.052   2.052
     7.00    2.052   2.052   2.052   2.052   2.052   2.052   2.052   2.052   2.052   2.052   2.052   2.052   2.052   2.052   2.052   2.052   2.052   2.052   2.052   2.052   2.052   2.052   2.052   2.052   2.052

   Height   Standard deviation at grid points for the w component:
   273.00    1.305   1.305   1.305   1.305   1.305   1.305   1.305   1.305   1.305   1.305   1.305   1.305   1.305   1.305   1.305   1.305   1.305   1.305   1.305   1.305   1.305   1.305   1.305   1.305   1.305
   261.92    1.305   1.305   1.305   1.305   1.305   1.305   1.305   1.305   1.305   1.305   1.305   1.305   1.305   1.305   1.305   1.305   1.305   1.305   1.305   1.305   1.305   1.305   1.305   1.305   1.305
   250.83    1.305   1.305   1.305   1.305   1.305   1.305   1.305   1.305   1.305   1.305   1.305   1.305   1.305   1.305   1.305   1.305   1.305   1.305   1.305   1.305   1.305   1.305   1.305   1.305   1.305
   239.75    1.305   1.305   1.305   1.305   1.305   1.305   1.305   1.305   1.305   1.305   1.305   1.305   1.305   1.305   1.305   1.305   1.305   1.305   1.305   1.305   1.305   1.305   1.305   1.305   1.305
   228.67    1.305   1.305   1.305   1.305   1.305   1.305   1.305   1.305   1.305   1.305   1.305   1.305   1.305   1.305   1.305   1.305   1.305   1.305   1.305   1.305   1.305   1.305   1.305   1.305   1.305
   217.58    1.305   1.305   1.305   1.305   1.305   1.305   1.305   1.305   1.305   1.305   1.305   1.305   1.305   1.305   1.305   1.305   1.305   1.305   1.305   1.305   1.305   1.305   1.305   1.305   1.305
   206.50    1.305   1.305   1.305   1.305   1.305   1.305   1.305   1.305   1.305   1.305   1.305   1.305   1.305   1.305   1.305   1.305   1.305   1.305   1.305   1.305   1.305   1.305   1.305   1.305   1.305
   195.42    1.305   1.305   1.305   1.305   1.305   1.305   1.305   1.305   1.305   1.305   1.305   1.305   1.305   1.305   1.305   1.305   1.305   1.305   1.305   1.305   1.305   1.305   1.305   1.305   1.305
   184.33    1.305   1.305   1.305   1.305   1.305   1.305   1.305   1.305   1.305   1.305   1.305   1.305   1.305   1.305   1.305   1.305   1.305   1.305   1.305   1.305   1.305   1.305   1.305   1.305   1.305
   173.25    1.305   1.305   1.305   1.305   1.305   1.305   1.305   1.305   1.305   1.305   1.305   1.305   1.305   1.305   1.305   1.305   1.305   1.305   1.305   1.305   1.305   1.305   1.305   1.305   1.305
   162.17    1.305   1.305   1.305   1.305   1.305   1.305   1.305   1.305   1.305   1.305   1.305   1.305   1.305   1.305   1.305   1.305   1.305   1.305   1.305   1.305   1.305   1.305   1.305   1.305   1.305
   151.08    1.305   1.305   1.305   1.305   1.305   1.305   1.305   1.305   1.305   1.305   1.305   1.305   1.305   1.305   1.305   1.305   1.305   1.305   1.305   1.305   1.305   1.305   1.305   1.305   1.305
   140.00    1.305   1.305   1.305   1.305   1.305   1.305   1.305   1.305   1.305   1.305   1.305   1.305   1.305   1.305   1.305   1.305   1.305   1.305   1.305   1.305   1.305   1.305   1.305   1.305   1.305
   128.92    1.305   1.305   1.305   1.305   1.305   1.305   1.305   1.305   1.305   1.305   1.305   1.305   1.305   1.305   1.305   1.305   1.305   1.305   1.305   1.305   1.305   1.305   1.305   1.305   1.305
   117.83    1.305   1.305   1.305   1.305   1.305   1.305   1.305   1.305   1.305   1.305   1.305   1.305   1.305   1.305   1.305   1.305   1.305   1.305   1.305   1.305   1.305   1.305   1.305   1.305   1.305
   106.75    1.305   1.305   1.305   1.305   1.305   1.305   1.305   1.305   1.305   1.305   1.305   1.305   1.305   1.305   1.305   1.305   1.305   1.305   1.305   1.305   1.305   1.305   1.305   1.305   1.305
    95.67    1.305   1.305   1.305   1.305   1.305   1.305   1.305   1.305   1.305   1.305   1.305   1.305   1.305   1.305   1.305   1.305   1.305   1.305   1.305   1.305   1.305   1.305   1.305   1.305   1.305
    84.58    1.305   1.305   1.305   1.305   1.305   1.305   1.305   1.305   1.305   1.305   1.305   1.305   1.305   1.305   1.305   1.305   1.305   1.305   1.305   1.305   1.305   1.305   1.305   1.305   1.305
    73.50    1.305   1.305   1.305   1.305   1.305   1.305   1.305   1.305   1.305   1.305   1.305   1.305   1.305   1.305   1.305   1.305   1.305   1.305   1.305   1.305   1.305   1.305   1.305   1.305   1.305
    62.42    1.305   1.305   1.305   1.305   1.305   1.305   1.305   1.305   1.305   1.305   1.305   1.305   1.305   1.305   1.305   1.305   1.305   1.305   1.305   1.305   1.305   1.305   1.305   1.305   1.305
    51.33    1.305   1.305   1.305   1.305   1.305   1.305   1.305   1.305   1.305   1.305   1.305   1.305   1.305   1.305   1.305   1.305   1.305   1.305   1.305   1.305   1.305   1.305   1.305   1.305   1.305
    40.25    1.305   1.305   1.305   1.305   1.305   1.305   1.305   1.305   1.305   1.305   1.305   1.305   1.305   1.305   1.305   1.305   1.305   1.305   1.305   1.305   1.305   1.305   1.305   1.305   1.305
    29.17    1.305   1.305   1.305   1.305   1.305   1.305   1.305   1.305   1.305   1.305   1.305   1.305   1.305   1.305   1.305   1.305   1.305   1.305   1.305   1.305   1.305   1.305   1.305   1.305   1.305
    18.08    1.305   1.305   1.305   1.305   1.305   1.305   1.305   1.305   1.305   1.305   1.305   1.305   1.305   1.305   1.305   1.305   1.305   1.305   1.305   1.305   1.305   1.305   1.305   1.305   1.305
     7.00    1.305   1.305   1.305   1.305   1.305   1.305   1.305   1.305   1.305   1.305   1.305   1.305   1.305   1.305   1.305   1.305   1.305   1.305   1.305   1.305   1.305   1.305   1.305   1.305   1.305

   Mean standard deviation across all grid points:
      u component:    2.535 m/s
      v component:    2.052 m/s
      w component:    1.305 m/s


U-component (X) statistics from the interpolated hub point:

   Mean =  15.0000 m/s
   TI   =  19.1416 %


Processing complete.  41.304 CPU seconds used.
