
This summary file was generated by TurbSim (v2.00.08a-bjj, 18-Jul-2017) on 24-Jul-2020 at 16:30:26.


Runtime Options:

        11  Random seed #1
    RANLUX  Type of random number generator
         F  Output binary HH turbulence parameters?
         F  Output formatted turbulence parameters?
         F  Output AeroDyn HH files?
         T  Output AeroDyn FF files?
         F  Output BLADED FF files?
         F  Output tower data?
         F  Output formatted FF files?
         F  Output coherent turbulence time step file?
         T  Clockwise rotation when looking downwind?
 0 -  NONE  IEC turbulence models scaled to exact specified standard deviation


Turbine/Model Specifications:

        25  Vertical grid-point matrix dimension
        25  Horizontal grid-point matrix dimension
     0.050  Time step [seconds]
   180.000  Analysis time [seconds]
   180.000  Usable output time [seconds]
   140.000  Hub height [m]
   266.000  Grid height [m]
   266.000  Grid width [m]
     0.000  Vertical flow angle [degrees]
     0.000  Horizontal flow angle [degrees]


Meteorological Boundary Conditions:

    IECKAI  IEC Kaimal spectral model
         1  IEC standard: IEC 61400-1 Ed. 3: 2005
         A  IEC turbulence characteristic
       NTM  IEC Normal Turbulence Model
       N/A  IEC Extreme Turbulence Model (ETM) "c" parameter [m/s]
       PL   Wind profile type
   140.000  Reference height [m]
     9.000  Reference wind speed [m/s]
       N/A  Jet height [m]
     0.200  Power law exponent
     0.030  Surface roughness length [m]


Non-IEC Meteorological Boundary Conditions:

       N/A  Site latitude [degrees]
       N/A  Gradient Richardson number
       N/A  Friction or shear velocity [m/s]
       N/A  Mixing layer depth [m]
       N/A  Mean hub u'w' Reynolds stress
       N/A  Mean hub u'v' Reynolds stress
       N/A  Mean hub v'w' Reynolds stress


Spatial Coherence Models:

   GENERAL  u-component coherence model
   GENERAL  v-component coherence model
   GENERAL  w-component coherence model
(   12.000, 0.353E-03)  u-component coherence parameters
(*********,  0.00    )  v-component coherence parameters
(*********,  0.00    )  w-component coherence parameters
     0.000  Coherence exponent


You have requested that the following file(s) be generated:

   /home/mertzb/Documents/Analysis/BAR10/temp/Testing/Testing_IEC_NTM_U9.000000_Seed11.0.bts (AeroDyn/TurbSim full-field wind file)


Turbulence Simulation Scaling Parameter Summary:

   Turbulence model used                            =  IEC Kaimal
   Turbulence characteristic                        =  A
   IEC turbulence type                              =  Normal Turbulence Model
   IEC standard                                     =  IEC 61400-1 Ed. 3: 2005
   Mean wind speed at hub height                    =    9.000 m/s
   Expected value of turbulence intensity at 15 m/s =   16.000%
   Characteristic value of standard deviation       =    1.976 m/s
   Turbulence scale                                 =   42.000 m
   u-component integral scale                       =  340.200 m
   Coherency scale                                  =  340.200 m
   Characteristic value of hub turbulence intensity =   21.956%
   Gradient Richardson number                       =    0.000

   Wind profile type                                =  Power law
   Power law exponent                               =    0.200
   Mean shear across rotor disk                     =    0.020 (m/s)/m
   Assumed rotor diameter                           =  266.000 m
   Surface roughness length                         =    0.030 m

   Nyquist frequency of turbulent wind field        =   10.000 Hz

   Number of time steps in the FFT                  =     3600
   Number of time steps output                      =     3600
   Number of points simulated                       =      625


Mean Flow Angles:

   Vertical   =   0.0 degrees
   Horizontal =   0.0 degrees

Mean Wind Speed Profile:

   Height    Wind Speed   Horizontal Angle  Vertical Angle  U-comp (X)   V-comp (Y)   W-comp (Z)
     (m)        (m/s)         (degrees)       (degrees)       (m/s)        (m/s)        (m/s)   
   ------    ----------   ----------------  --------------  ----------   ----------   ----------
    273.0       10.29            0.00            0.00         10.29         0.00         0.00
    261.9       10.20            0.00            0.00         10.20         0.00         0.00
    250.8       10.11            0.00            0.00         10.11         0.00         0.00
    239.8       10.02            0.00            0.00         10.02         0.00         0.00
    228.7        9.93            0.00            0.00          9.93         0.00         0.00
    217.6        9.83            0.00            0.00          9.83         0.00         0.00
    206.5        9.73            0.00            0.00          9.73         0.00         0.00
    195.4        9.62            0.00            0.00          9.62         0.00         0.00
    184.3        9.51            0.00            0.00          9.51         0.00         0.00
    173.2        9.39            0.00            0.00          9.39         0.00         0.00
    162.2        9.27            0.00            0.00          9.27         0.00         0.00
    151.1        9.14            0.00            0.00          9.14         0.00         0.00
    140.0        9.00            0.00            0.00          9.00         0.00         0.00
    128.9        8.85            0.00            0.00          8.85         0.00         0.00
    117.8        8.70            0.00            0.00          8.70         0.00         0.00
    106.8        8.52            0.00            0.00          8.52         0.00         0.00
     95.7        8.34            0.00            0.00          8.34         0.00         0.00
     84.6        8.14            0.00            0.00          8.14         0.00         0.00
     73.5        7.91            0.00            0.00          7.91         0.00         0.00
     62.4        7.66            0.00            0.00          7.66         0.00         0.00
     51.3        7.36            0.00            0.00          7.36         0.00         0.00
     40.2        7.01            0.00            0.00          7.01         0.00         0.00
     29.2        6.58            0.00            0.00          6.58         0.00         0.00
     18.1        5.98            0.00            0.00          5.98         0.00         0.00
      7.0        4.94            0.00            0.00          4.94         0.00         0.00


Harvested Random Seeds after Generation of the Random Numbers:

     31359375 K 1
            0 K 2


Hub-Height Simulated Turbulence Statistical Summary:

   Type of Wind        Min (m/s)   Mean (m/s)    Max (m/s)  Sigma (m/s)       TI (%)
   ----------------    ---------   ----------    ---------  -----------       ------
   Longitudinal (u)         4.20         9.00        13.77        1.952       21.694
   Lateral (v)             -3.97         0.00         4.24        1.469       16.325
   Vertical (w)            -2.63         0.00         3.91        0.956       10.621
   U component              4.20         9.00        13.77        1.952       21.694
   V component             -3.97         0.00         4.24        1.469       16.325
   W component             -2.63         0.00         3.91        0.956       10.621
   Horizontal (U&V)         4.69         9.13        13.78        1.917       21.003
   Total                    4.74         9.18        13.81        1.900       20.693

                       Min Reynolds     Mean Reynolds    Max Reynolds    Correlation
   Product             Stress (m/s)^2   Stress (m/s)^2   Stress (m/s)^2  Coefficient
   ----------------    --------------   --------------   --------------  -----------
   u'w'                    -11.681            -0.231             5.990        -0.124
   u'v'                    -14.470             0.321            11.743         0.112
   v'w'                     -7.841            -0.028             8.138        -0.020


   Friction Velocity (Ustar)  =      0.480 m/s
   Maximum Instantaneous TKE  =     16.141 (m/s)^2
   Maximum Instantaneous CTKE =      7.873 (m/s)^2


Grid Point Variance Summary:

   Y-coord -133.00 -121.92 -110.83  -99.75  -88.67  -77.58  -66.50  -55.42  -44.33  -33.25  -22.17  -11.08    0.00   11.08   22.17   33.25   44.33   55.42   66.50   77.58   88.67   99.75  110.83  121.92  133.00

   Height   Standard deviation at grid points for the u component:
   273.00    1.929   1.939   1.731   1.694   2.096   1.988   1.640   1.584   1.830   1.704   1.768   1.462   1.709   1.593   1.285   1.526   1.584   1.718   1.793   1.700   1.782   1.771   1.705   1.693   1.673
   261.92    2.236   1.997   1.991   1.951   2.337   2.299   2.019   1.740   2.143   1.778   1.523   1.490   1.707   1.439   1.423   1.588   1.547   1.776   1.684   1.723   2.077   1.995   1.747   1.668   1.773
   250.83    2.044   1.937   2.140   2.259   2.256   2.224   1.850   2.102   2.024   1.706   1.605   1.531   1.747   1.641   1.982   1.775   1.616   1.839   1.965   1.907   1.691   1.803   1.862   1.536   1.688
   239.75    1.888   1.799   1.959   1.925   1.686   1.951   1.936   1.982   1.632   1.866   1.733   1.866   1.662   1.900   2.072   2.133   1.778   2.206   1.774   1.691   1.765   1.656   1.784   1.631   1.843
   228.67    1.612   1.375   1.648   1.770   1.701   1.855   1.772   1.732   2.007   1.919   1.942   1.956   1.437   1.847   2.044   2.110   2.384   2.000   2.187   1.626   1.650   1.360   1.467   1.513   1.776
   217.58    1.428   1.534   1.584   1.635   1.759   1.742   1.329   1.751   2.149   2.128   2.045   1.845   1.697   1.779   1.945   2.029   2.266   2.092   2.097   1.842   1.640   1.243   1.307   1.544   1.543
   206.50    1.613   1.706   1.749   1.729   1.989   1.685   1.370   1.553   1.891   1.918   2.213   2.274   1.932   1.754   2.042   2.170   2.029   2.160   1.912   1.568   1.568   1.293   1.549   1.516   1.714
   195.42    1.824   1.664   1.726   1.526   1.624   1.810   1.647   1.913   1.797   2.081   2.069   2.159   2.136   1.662   1.963   1.985   2.205   1.995   1.818   1.414   1.361   1.479   1.442   1.454   1.505
   184.33    1.805   1.586   1.460   1.327   1.543   1.820   1.723   2.280   2.209   2.316   2.241   2.124   2.054   1.854   1.880   1.776   1.861   1.844   1.825   1.415   1.583   1.312   1.293   1.479   1.456
   173.25    1.765   1.662   1.632   1.273   1.747   1.743   2.094   2.427   2.333   1.970   2.157   2.238   2.046   2.231   2.034   1.719   1.776   1.901   1.644   1.395   1.464   1.436   1.283   1.477   1.659
   162.17    1.539   1.360   1.561   1.517   1.737   2.055   2.062   2.225   2.558   2.343   2.169   2.057   2.175   2.399   2.178   2.093   1.769   1.500   1.503   1.381   1.595   1.476   1.709   1.707   1.566
   151.08    1.600   1.517   1.308   1.527   1.756   2.020   2.076   1.975   2.367   2.719   2.460   2.348   2.246   2.234   2.297   2.114   1.915   1.503   1.332   1.466   1.444   1.431   1.583   1.639   1.816
   140.00    1.574   1.252   1.212   1.575   1.626   1.754   1.923   2.404   2.636   2.785   2.448   2.280   1.952   1.622   1.924   1.909   1.771   1.408   1.338   1.248   1.487   1.596   1.641   1.879   1.757
   128.92    1.433   1.222   1.271   1.646   2.000   1.847   1.969   2.096   2.382   2.551   2.652   2.173   1.730   1.759   1.697   1.770   1.268   1.564   1.416   1.404   1.575   1.685   1.780   1.733   1.779
   117.83    1.295   1.179   1.445   1.449   1.701   1.926   1.863   1.814   2.155   2.370   2.593   2.236   1.592   1.589   1.501   1.594   1.429   1.674   1.332   1.438   1.432   1.672   1.647   1.784   1.710
   106.75    1.573   1.442   1.466   1.559   1.464   1.593   1.811   1.970   1.951   2.059   2.178   1.978   1.733   1.670   1.413   1.526   1.448   1.442   1.361   1.648   1.715   1.577   1.458   1.574   1.829
    95.67    1.609   1.592   1.675   1.574   1.597   1.607   1.697   1.465   1.736   1.767   1.849   1.489   1.454   1.308   1.380   1.493   1.489   1.442   1.211   1.324   1.659   1.582   1.727   1.787   1.834
    84.58    1.545   1.615   1.634   1.552   1.325   1.530   1.461   1.493   1.693   1.606   1.412   1.550   1.486   1.486   1.726   1.611   1.057   1.311   1.400   1.422   1.704   1.706   1.584   1.832   1.977
    73.50    1.858   1.757   1.668   1.383   1.579   1.593   1.454   1.282   1.673   1.611   1.730   1.760   1.393   1.442   1.535   1.657   1.355   1.713   1.718   1.490   1.571   1.636   1.506   1.735   1.893
    62.42    1.692   1.605   1.720   1.661   1.806   1.608   1.799   1.736   1.860   1.986   1.927   1.688   1.619   1.243   1.556   1.499   1.358   1.730   2.022   1.665   1.705   1.714   1.344   1.415   1.584
    51.33    1.605   1.826   1.831   1.550   1.917   1.893   1.851   1.626   1.653   1.667   1.618   1.513   1.222   1.173   1.585   1.490   1.568   1.791   1.759   1.852   1.650   1.631   1.362   1.419   1.374
    40.25    1.745   1.473   1.718   1.915   1.757   1.860   1.782   1.844   1.667   1.651   1.815   1.538   1.326   1.271   1.623   1.910   1.790   2.186   1.786   1.566   1.838   1.509   1.470   1.408   1.384
    29.17    1.801   1.620   1.608   1.837   1.761   1.712   1.768   1.725   1.766   1.633   1.597   1.446   1.592   1.313   1.652   1.554   1.605   2.028   1.715   1.754   1.578   1.719   1.576   1.455   1.248
    18.08    1.810   1.692   1.802   2.153   1.895   1.984   1.548   1.567   1.790   2.061   1.620   1.580   1.641   1.598   1.670   1.633   1.862   1.806   1.842   1.719   1.480   1.437   1.397   1.652   1.352
     7.00    1.652   1.416   1.742   2.022   2.109   2.261   2.045   1.893   1.777   1.888   2.125   1.703   1.428   1.678   1.548   1.335   1.540   1.538   1.419   1.774   1.380   1.404   1.249   1.415   1.332

   Height   Standard deviation at grid points for the v component:
   273.00    1.469   1.469   1.469   1.469   1.469   1.469   1.469   1.469   1.469   1.469   1.469   1.469   1.469   1.469   1.469   1.469   1.469   1.469   1.469   1.469   1.469   1.469   1.469   1.469   1.469
   261.92    1.469   1.469   1.469   1.469   1.469   1.469   1.469   1.469   1.469   1.469   1.469   1.469   1.469   1.469   1.469   1.469   1.469   1.469   1.469   1.469   1.469   1.469   1.469   1.469   1.469
   250.83    1.469   1.469   1.469   1.469   1.469   1.469   1.469   1.469   1.469   1.469   1.469   1.469   1.469   1.469   1.469   1.469   1.469   1.469   1.469   1.469   1.469   1.469   1.469   1.469   1.469
   239.75    1.469   1.469   1.469   1.469   1.469   1.469   1.469   1.469   1.469   1.469   1.469   1.469   1.469   1.469   1.469   1.469   1.469   1.469   1.469   1.469   1.469   1.469   1.469   1.469   1.469
   228.67    1.469   1.469   1.469   1.469   1.469   1.469   1.469   1.469   1.469   1.469   1.469   1.469   1.469   1.469   1.469   1.469   1.469   1.469   1.469   1.469   1.469   1.469   1.469   1.469   1.469
   217.58    1.469   1.469   1.469   1.469   1.469   1.469   1.469   1.469   1.469   1.469   1.469   1.469   1.469   1.469   1.469   1.469   1.469   1.469   1.469   1.469   1.469   1.469   1.469   1.469   1.469
   206.50    1.469   1.469   1.469   1.469   1.469   1.469   1.469   1.469   1.469   1.469   1.469   1.469   1.469   1.469   1.469   1.469   1.469   1.469   1.469   1.469   1.469   1.469   1.469   1.469   1.469
   195.42    1.469   1.469   1.469   1.469   1.469   1.469   1.469   1.469   1.469   1.469   1.469   1.469   1.469   1.469   1.469   1.469   1.469   1.469   1.469   1.469   1.469   1.469   1.469   1.469   1.469
   184.33    1.469   1.469   1.469   1.469   1.469   1.469   1.469   1.469   1.469   1.469   1.469   1.469   1.469   1.469   1.469   1.469   1.469   1.469   1.469   1.469   1.469   1.469   1.469   1.469   1.469
   173.25    1.469   1.469   1.469   1.469   1.469   1.469   1.469   1.469   1.469   1.469   1.469   1.469   1.469   1.469   1.469   1.469   1.469   1.469   1.469   1.469   1.469   1.469   1.469   1.469   1.469
   162.17    1.469   1.469   1.469   1.469   1.469   1.469   1.469   1.469   1.469   1.469   1.469   1.469   1.469   1.469   1.469   1.469   1.469   1.469   1.469   1.469   1.469   1.469   1.469   1.469   1.469
   151.08    1.469   1.469   1.469   1.469   1.469   1.469   1.469   1.469   1.469   1.469   1.469   1.469   1.469   1.469   1.469   1.469   1.469   1.469   1.469   1.469   1.469   1.469   1.469   1.469   1.469
   140.00    1.469   1.469   1.469   1.469   1.469   1.469   1.469   1.469   1.469   1.469   1.469   1.469   1.469   1.469   1.469   1.469   1.469   1.469   1.469   1.469   1.469   1.469   1.469   1.469   1.469
   128.92    1.469   1.469   1.469   1.469   1.469   1.469   1.469   1.469   1.469   1.469   1.469   1.469   1.469   1.469   1.469   1.469   1.469   1.469   1.469   1.469   1.469   1.469   1.469   1.469   1.469
   117.83    1.469   1.469   1.469   1.469   1.469   1.469   1.469   1.469   1.469   1.469   1.469   1.469   1.469   1.469   1.469   1.469   1.469   1.469   1.469   1.469   1.469   1.469   1.469   1.469   1.469
   106.75    1.469   1.469   1.469   1.469   1.469   1.469   1.469   1.469   1.469   1.469   1.469   1.469   1.469   1.469   1.469   1.469   1.469   1.469   1.469   1.469   1.469   1.469   1.469   1.469   1.469
    95.67    1.469   1.469   1.469   1.469   1.469   1.469   1.469   1.469   1.469   1.469   1.469   1.469   1.469   1.469   1.469   1.469   1.469   1.469   1.469   1.469   1.469   1.469   1.469   1.469   1.469
    84.58    1.469   1.469   1.469   1.469   1.469   1.469   1.469   1.469   1.469   1.469   1.469   1.469   1.469   1.469   1.469   1.469   1.469   1.469   1.469   1.469   1.469   1.469   1.469   1.469   1.469
    73.50    1.469   1.469   1.469   1.469   1.469   1.469   1.469   1.469   1.469   1.469   1.469   1.469   1.469   1.469   1.469   1.469   1.469   1.469   1.469   1.469   1.469   1.469   1.469   1.469   1.469
    62.42    1.469   1.469   1.469   1.469   1.469   1.469   1.469   1.469   1.469   1.469   1.469   1.469   1.469   1.469   1.469   1.469   1.469   1.469   1.469   1.469   1.469   1.469   1.469   1.469   1.469
    51.33    1.469   1.469   1.469   1.469   1.469   1.469   1.469   1.469   1.469   1.469   1.469   1.469   1.469   1.469   1.469   1.469   1.469   1.469   1.469   1.469   1.469   1.469   1.469   1.469   1.469
    40.25    1.469   1.469   1.469   1.469   1.469   1.469   1.469   1.469   1.469   1.469   1.469   1.469   1.469   1.469   1.469   1.469   1.469   1.469   1.469   1.469   1.469   1.469   1.469   1.469   1.469
    29.17    1.469   1.469   1.469   1.469   1.469   1.469   1.469   1.469   1.469   1.469   1.469   1.469   1.469   1.469   1.469   1.469   1.469   1.469   1.469   1.469   1.469   1.469   1.469   1.469   1.469
    18.08    1.469   1.469   1.469   1.469   1.469   1.469   1.469   1.469   1.469   1.469   1.469   1.469   1.469   1.469   1.469   1.469   1.469   1.469   1.469   1.469   1.469   1.469   1.469   1.469   1.469
     7.00    1.469   1.469   1.469   1.469   1.469   1.469   1.469   1.469   1.469   1.469   1.469   1.469   1.469   1.469   1.469   1.469   1.469   1.469   1.469   1.469   1.469   1.469   1.469   1.469   1.469

   Height   Standard deviation at grid points for the w component:
   273.00    0.956   0.956   0.956   0.956   0.956   0.956   0.956   0.956   0.956   0.956   0.956   0.956   0.956   0.956   0.956   0.956   0.956   0.956   0.956   0.956   0.956   0.956   0.956   0.956   0.956
   261.92    0.956   0.956   0.956   0.956   0.956   0.956   0.956   0.956   0.956   0.956   0.956   0.956   0.956   0.956   0.956   0.956   0.956   0.956   0.956   0.956   0.956   0.956   0.956   0.956   0.956
   250.83    0.956   0.956   0.956   0.956   0.956   0.956   0.956   0.956   0.956   0.956   0.956   0.956   0.956   0.956   0.956   0.956   0.956   0.956   0.956   0.956   0.956   0.956   0.956   0.956   0.956
   239.75    0.956   0.956   0.956   0.956   0.956   0.956   0.956   0.956   0.956   0.956   0.956   0.956   0.956   0.956   0.956   0.956   0.956   0.956   0.956   0.956   0.956   0.956   0.956   0.956   0.956
   228.67    0.956   0.956   0.956   0.956   0.956   0.956   0.956   0.956   0.956   0.956   0.956   0.956   0.956   0.956   0.956   0.956   0.956   0.956   0.956   0.956   0.956   0.956   0.956   0.956   0.956
   217.58    0.956   0.956   0.956   0.956   0.956   0.956   0.956   0.956   0.956   0.956   0.956   0.956   0.956   0.956   0.956   0.956   0.956   0.956   0.956   0.956   0.956   0.956   0.956   0.956   0.956
   206.50    0.956   0.956   0.956   0.956   0.956   0.956   0.956   0.956   0.956   0.956   0.956   0.956   0.956   0.956   0.956   0.956   0.956   0.956   0.956   0.956   0.956   0.956   0.956   0.956   0.956
   195.42    0.956   0.956   0.956   0.956   0.956   0.956   0.956   0.956   0.956   0.956   0.956   0.956   0.956   0.956   0.956   0.956   0.956   0.956   0.956   0.956   0.956   0.956   0.956   0.956   0.956
   184.33    0.956   0.956   0.956   0.956   0.956   0.956   0.956   0.956   0.956   0.956   0.956   0.956   0.956   0.956   0.956   0.956   0.956   0.956   0.956   0.956   0.956   0.956   0.956   0.956   0.956
   173.25    0.956   0.956   0.956   0.956   0.956   0.956   0.956   0.956   0.956   0.956   0.956   0.956   0.956   0.956   0.956   0.956   0.956   0.956   0.956   0.956   0.956   0.956   0.956   0.956   0.956
   162.17    0.956   0.956   0.956   0.956   0.956   0.956   0.956   0.956   0.956   0.956   0.956   0.956   0.956   0.956   0.956   0.956   0.956   0.956   0.956   0.956   0.956   0.956   0.956   0.956   0.956
   151.08    0.956   0.956   0.956   0.956   0.956   0.956   0.956   0.956   0.956   0.956   0.956   0.956   0.956   0.956   0.956   0.956   0.956   0.956   0.956   0.956   0.956   0.956   0.956   0.956   0.956
   140.00    0.956   0.956   0.956   0.956   0.956   0.956   0.956   0.956   0.956   0.956   0.956   0.956   0.956   0.956   0.956   0.956   0.956   0.956   0.956   0.956   0.956   0.956   0.956   0.956   0.956
   128.92    0.956   0.956   0.956   0.956   0.956   0.956   0.956   0.956   0.956   0.956   0.956   0.956   0.956   0.956   0.956   0.956   0.956   0.956   0.956   0.956   0.956   0.956   0.956   0.956   0.956
   117.83    0.956   0.956   0.956   0.956   0.956   0.956   0.956   0.956   0.956   0.956   0.956   0.956   0.956   0.956   0.956   0.956   0.956   0.956   0.956   0.956   0.956   0.956   0.956   0.956   0.956
   106.75    0.956   0.956   0.956   0.956   0.956   0.956   0.956   0.956   0.956   0.956   0.956   0.956   0.956   0.956   0.956   0.956   0.956   0.956   0.956   0.956   0.956   0.956   0.956   0.956   0.956
    95.67    0.956   0.956   0.956   0.956   0.956   0.956   0.956   0.956   0.956   0.956   0.956   0.956   0.956   0.956   0.956   0.956   0.956   0.956   0.956   0.956   0.956   0.956   0.956   0.956   0.956
    84.58    0.956   0.956   0.956   0.956   0.956   0.956   0.956   0.956   0.956   0.956   0.956   0.956   0.956   0.956   0.956   0.956   0.956   0.956   0.956   0.956   0.956   0.956   0.956   0.956   0.956
    73.50    0.956   0.956   0.956   0.956   0.956   0.956   0.956   0.956   0.956   0.956   0.956   0.956   0.956   0.956   0.956   0.956   0.956   0.956   0.956   0.956   0.956   0.956   0.956   0.956   0.956
    62.42    0.956   0.956   0.956   0.956   0.956   0.956   0.956   0.956   0.956   0.956   0.956   0.956   0.956   0.956   0.956   0.956   0.956   0.956   0.956   0.956   0.956   0.956   0.956   0.956   0.956
    51.33    0.956   0.956   0.956   0.956   0.956   0.956   0.956   0.956   0.956   0.956   0.956   0.956   0.956   0.956   0.956   0.956   0.956   0.956   0.956   0.956   0.956   0.956   0.956   0.956   0.956
    40.25    0.956   0.956   0.956   0.956   0.956   0.956   0.956   0.956   0.956   0.956   0.956   0.956   0.956   0.956   0.956   0.956   0.956   0.956   0.956   0.956   0.956   0.956   0.956   0.956   0.956
    29.17    0.956   0.956   0.956   0.956   0.956   0.956   0.956   0.956   0.956   0.956   0.956   0.956   0.956   0.956   0.956   0.956   0.956   0.956   0.956   0.956   0.956   0.956   0.956   0.956   0.956
    18.08    0.956   0.956   0.956   0.956   0.956   0.956   0.956   0.956   0.956   0.956   0.956   0.956   0.956   0.956   0.956   0.956   0.956   0.956   0.956   0.956   0.956   0.956   0.956   0.956   0.956
     7.00    0.956   0.956   0.956   0.956   0.956   0.956   0.956   0.956   0.956   0.956   0.956   0.956   0.956   0.956   0.956   0.956   0.956   0.956   0.956   0.956   0.956   0.956   0.956   0.956   0.956

   Mean standard deviation across all grid points:
      u component:    1.731 m/s
      v component:    1.469 m/s
      w component:    0.956 m/s


U-component (X) statistics from the interpolated hub point:

   Mean =   9.0000 m/s
   TI   =  21.6940 %


Processing complete.  27.959 CPU seconds used.
