
This summary file was generated by TurbSim (v2.00.08a-bjj, 18-Jul-2017) on 24-Jul-2020 at 16:40:13.


Runtime Options:

        12  Random seed #1
    RANLUX  Type of random number generator
         F  Output binary HH turbulence parameters?
         F  Output formatted turbulence parameters?
         F  Output AeroDyn HH files?
         T  Output AeroDyn FF files?
         F  Output BLADED FF files?
         F  Output tower data?
         F  Output formatted FF files?
         F  Output coherent turbulence time step file?
         T  Clockwise rotation when looking downwind?
 0 -  NONE  IEC turbulence models scaled to exact specified standard deviation


Turbine/Model Specifications:

        25  Vertical grid-point matrix dimension
        25  Horizontal grid-point matrix dimension
     0.050  Time step [seconds]
   180.000  Analysis time [seconds]
   180.000  Usable output time [seconds]
   140.000  Hub height [m]
   266.000  Grid height [m]
   266.000  Grid width [m]
     0.000  Vertical flow angle [degrees]
     0.000  Horizontal flow angle [degrees]


Meteorological Boundary Conditions:

    IECKAI  IEC Kaimal spectral model
         1  IEC standard: IEC 61400-1 Ed. 3: 2005
         A  IEC turbulence characteristic
       NTM  IEC Normal Turbulence Model
       N/A  IEC Extreme Turbulence Model (ETM) "c" parameter [m/s]
       PL   Wind profile type
   140.000  Reference height [m]
    19.000  Reference wind speed [m/s]
       N/A  Jet height [m]
     0.200  Power law exponent
     0.030  Surface roughness length [m]


Non-IEC Meteorological Boundary Conditions:

       N/A  Site latitude [degrees]
       N/A  Gradient Richardson number
       N/A  Friction or shear velocity [m/s]
       N/A  Mixing layer depth [m]
       N/A  Mean hub u'w' Reynolds stress
       N/A  Mean hub u'v' Reynolds stress
       N/A  Mean hub v'w' Reynolds stress


Spatial Coherence Models:

   GENERAL  u-component coherence model
   GENERAL  v-component coherence model
   GENERAL  w-component coherence model
(   12.000, 0.353E-03)  u-component coherence parameters
(*********,  0.00    )  v-component coherence parameters
(*********,  0.00    )  w-component coherence parameters
     0.000  Coherence exponent


You have requested that the following file(s) be generated:

   /home/mertzb/Documents/Analysis/BAR10/temp/Testing/Testing_powercurve_NTM_U19.000000_Seed12.0.bts (AeroDyn/TurbSim full-field wind file)


Turbulence Simulation Scaling Parameter Summary:

   Turbulence model used                            =  IEC Kaimal
   Turbulence characteristic                        =  A
   IEC turbulence type                              =  Normal Turbulence Model
   IEC standard                                     =  IEC 61400-1 Ed. 3: 2005
   Mean wind speed at hub height                    =   19.000 m/s
   Expected value of turbulence intensity at 15 m/s =   16.000%
   Characteristic value of standard deviation       =    3.176 m/s
   Turbulence scale                                 =   42.000 m
   u-component integral scale                       =  340.200 m
   Coherency scale                                  =  340.200 m
   Characteristic value of hub turbulence intensity =   16.716%
   Gradient Richardson number                       =    0.000

   Wind profile type                                =  Power law
   Power law exponent                               =    0.200
   Mean shear across rotor disk                     =    0.042 (m/s)/m
   Assumed rotor diameter                           =  266.000 m
   Surface roughness length                         =    0.030 m

   Nyquist frequency of turbulent wind field        =   10.000 Hz

   Number of time steps in the FFT                  =     3600
   Number of time steps output                      =     3600
   Number of points simulated                       =      625


Mean Flow Angles:

   Vertical   =   0.0 degrees
   Horizontal =   0.0 degrees

Mean Wind Speed Profile:

   Height    Wind Speed   Horizontal Angle  Vertical Angle  U-comp (X)   V-comp (Y)   W-comp (Z)
     (m)        (m/s)         (degrees)       (degrees)       (m/s)        (m/s)        (m/s)   
   ------    ----------   ----------------  --------------  ----------   ----------   ----------
    273.0       21.72            0.00            0.00         21.72         0.00         0.00
    261.9       21.54            0.00            0.00         21.54         0.00         0.00
    250.8       21.35            0.00            0.00         21.35         0.00         0.00
    239.8       21.16            0.00            0.00         21.16         0.00         0.00
    228.7       20.96            0.00            0.00         20.96         0.00         0.00
    217.6       20.75            0.00            0.00         20.75         0.00         0.00
    206.5       20.54            0.00            0.00         20.54         0.00         0.00
    195.4       20.31            0.00            0.00         20.31         0.00         0.00
    184.3       20.07            0.00            0.00         20.07         0.00         0.00
    173.2       19.83            0.00            0.00         19.83         0.00         0.00
    162.2       19.57            0.00            0.00         19.57         0.00         0.00
    151.1       19.29            0.00            0.00         19.29         0.00         0.00
    140.0       19.00            0.00            0.00         19.00         0.00         0.00
    128.9       18.69            0.00            0.00         18.69         0.00         0.00
    117.8       18.36            0.00            0.00         18.36         0.00         0.00
    106.8       18.00            0.00            0.00         18.00         0.00         0.00
     95.7       17.61            0.00            0.00         17.61         0.00         0.00
     84.6       17.18            0.00            0.00         17.18         0.00         0.00
     73.5       16.70            0.00            0.00         16.70         0.00         0.00
     62.4       16.17            0.00            0.00         16.17         0.00         0.00
     51.3       15.55            0.00            0.00         15.55         0.00         0.00
     40.2       14.81            0.00            0.00         14.81         0.00         0.00
     29.2       13.88            0.00            0.00         13.88         0.00         0.00
     18.1       12.62            0.00            0.00         12.62         0.00         0.00
      7.0       10.44            0.00            0.00         10.44         0.00         0.00


Harvested Random Seeds after Generation of the Random Numbers:

     31359375 K 1
            0 K 2


Hub-Height Simulated Turbulence Statistical Summary:

   Type of Wind        Min (m/s)   Mean (m/s)    Max (m/s)  Sigma (m/s)       TI (%)
   ----------------    ---------   ----------    ---------  -----------       ------
   Longitudinal (u)        12.40        19.00        27.08        2.715       14.287
   Lateral (v)             -8.48         0.00         8.61        2.434       12.809
   Vertical (w)            -4.83        -0.00         4.98        1.534        8.076
   U component             12.40        19.00        27.08        2.715       14.287
   V component             -8.48         0.00         8.61        2.434       12.809
   W component             -4.83        -0.00         4.98        1.534        8.076
   Horizontal (U&V)        12.41        19.16        27.18        2.675       13.962
   Total                   12.44        19.22        27.21        2.669       13.886

                       Min Reynolds     Mean Reynolds    Max Reynolds    Correlation
   Product             Stress (m/s)^2   Stress (m/s)^2   Stress (m/s)^2  Coefficient
   ----------------    --------------   --------------   --------------  -----------
   u'w'                    -19.799            -0.312            25.927        -0.075
   u'v'                    -44.415            -0.790            26.469        -0.120
   v'w'                    -22.712             0.021            18.201         0.006


   Friction Velocity (Ustar)  =      0.559 m/s
   Maximum Instantaneous TKE  =     48.732 (m/s)^2
   Maximum Instantaneous CTKE =     22.215 (m/s)^2


Grid Point Variance Summary:

   Y-coord -133.00 -121.92 -110.83  -99.75  -88.67  -77.58  -66.50  -55.42  -44.33  -33.25  -22.17  -11.08    0.00   11.08   22.17   33.25   44.33   55.42   66.50   77.58   88.67   99.75  110.83  121.92  133.00

   Height   Standard deviation at grid points for the u component:
   273.00    2.062   2.449   2.451   2.912   3.058   3.197   3.056   2.873   3.068   2.750   2.522   2.510   2.347   2.421   2.651   2.741   2.662   2.899   2.917   2.562   2.481   2.527   2.607   2.662   2.701
   261.92    2.020   2.260   2.614   2.964   2.958   3.039   2.955   2.979   2.921   2.694   2.601   2.490   2.542   2.558   2.760   2.934   3.068   2.829   3.171   2.628   2.515   2.792   2.959   2.805   2.994
   250.83    2.742   2.378   2.727   2.987   2.969   2.788   2.964   2.432   2.462   2.686   2.792   2.492   2.639   2.798   2.896   3.269   3.173   2.901   2.824   2.849   2.697   3.075   2.617   2.694   2.960
   239.75    3.200   2.672   2.485   2.918   2.705   2.643   2.688   2.761   2.640   2.847   2.919   2.459   2.675   3.208   2.834   2.847   3.160   3.342   3.056   3.081   3.015   2.842   2.664   2.727   2.987
   228.67    3.026   2.725   2.367   2.729   2.556   2.687   2.798   2.714   2.868   3.019   3.125   2.855   3.097   3.221   3.139   3.107   3.123   3.159   3.179   3.235   2.777   3.085   2.900   2.790   2.946
   217.58    2.808   2.852   2.784   2.678   2.724   2.810   2.969   2.762   2.697   2.696   2.845   2.977   3.445   3.332   3.545   2.905   2.992   3.069   2.897   2.765   2.581   2.928   2.651   2.818   3.025
   206.50    2.583   2.721   2.756   2.653   2.738   2.740   2.754   2.957   3.012   2.977   2.893   3.347   3.473   3.320   3.046   2.886   2.889   3.159   2.884   2.729   2.568   2.632   2.945   2.758   3.127
   195.42    2.783   2.726   2.736   2.847   2.948   2.690   2.391   2.754   2.783   3.080   3.141   3.461   3.268   3.230   3.312   3.159   2.725   2.873   3.044   2.660   2.666   2.318   2.590   2.698   2.826
   184.33    2.557   2.811   2.896   2.718   2.925   2.695   2.514   2.755   2.549   2.949   2.977   3.016   3.117   3.151   3.245   2.860   2.552   2.725   2.739   2.545   2.271   2.229   2.223   2.450   2.851
   173.25    3.065   3.076   2.799   2.732   2.813   2.710   2.885   3.093   2.961   2.825   2.974   2.676   2.854   2.888   2.782   2.762   2.687   2.561   2.403   2.529   1.987   2.111   2.249   2.485   2.522
   162.17    3.305   3.048   2.936   2.905   2.851   2.820   3.078   2.903   3.006   2.763   2.629   2.477   2.524   2.693   2.923   2.675   2.879   2.405   2.376   2.373   2.409   2.350   2.446   2.422   2.592
   151.08    3.346   3.202   3.125   2.832   2.994   3.186   3.133   3.220   2.760   2.660   2.421   2.302   2.669   2.557   2.828   2.712   2.630   2.380   2.377   2.906   2.693   2.537   2.604   2.536   2.419
   140.00    3.355   3.142   3.184   3.134   2.746   2.990   3.172   3.096   2.903   2.922   2.555   2.771   2.715   2.644   2.579   2.860   3.083   2.810   2.725   2.939   2.644   2.637   2.548   2.347   2.110
   128.92    3.306   3.345   3.559   3.242   2.764   3.047   3.097   3.072   3.287   3.211   2.979   2.776   2.575   2.555   2.355   2.719   2.860   3.090   2.911   2.952   3.062   2.842   2.845   2.824   2.639
   117.83    3.325   3.455   3.568   3.103   2.892   2.771   2.624   2.706   3.077   3.101   2.762   2.488   2.515   2.674   2.981   2.869   2.692   2.980   2.839   2.843   2.858   2.678   2.712   2.906   3.002
   106.75    3.660   3.429   3.215   3.202   3.356   3.143   2.828   2.721   2.897   3.098   2.894   2.394   2.583   2.849   3.160   3.196   3.052   3.528   3.216   3.262   2.816   2.229   2.935   3.058   3.327
    95.67    3.246   3.305   3.449   3.146   3.364   3.096   2.897   2.998   3.046   3.087   2.749   2.652   2.611   3.117   3.155   3.205   3.201   3.362   3.272   3.004   2.747   2.588   2.713   3.215   3.357
    84.58    3.661   3.304   2.798   3.044   3.255   3.160   3.241   3.072   2.788   2.801   2.834   2.581   2.670   3.280   4.034   3.758   3.341   3.250   3.079   2.907   2.602   2.678   2.765   3.001   3.254
    73.50    3.646   3.078   2.983   2.979   2.861   3.063   3.243   3.269   2.932   3.062   3.153   3.061   3.203   3.612   3.847   3.668   3.687   3.453   3.498   3.459   3.156   2.816   3.028   2.935   3.107
    62.42    3.611   3.315   2.745   3.071   3.178   3.130   3.244   2.833   3.079   3.117   3.360   3.340   3.401   3.913   3.930   3.742   3.520   3.506   3.241   3.067   3.236   2.819   2.954   2.562   2.811
    51.33    3.500   3.137   2.728   3.095   3.166   2.947   2.961   2.827   2.637   3.036   2.980   3.068   3.597   3.877   4.019   3.706   3.729   3.323   3.086   3.333   3.188   3.111   3.196   2.834   2.661
    40.25    3.492   2.949   2.843   2.664   2.689   2.768   2.826   2.722   3.030   3.051   2.953   3.126   3.584   3.492   3.918   3.470   3.459   3.404   3.280   3.209   3.220   2.893   3.050   2.934   2.808
    29.17    3.035   3.019   3.018   2.735   2.920   2.761   2.749   2.733   2.603   2.988   3.442   3.080   3.329   3.863   3.836   3.725   3.877   3.960   3.442   3.587   3.323   3.228   3.011   3.044   2.668
    18.08    2.967   3.320   3.012   2.728   2.650   2.482   2.416   2.621   2.646   2.874   3.066   3.228   3.282   3.573   3.824   3.680   3.798   3.513   3.787   3.545   3.439   3.197   3.201   3.315   3.061
     7.00    2.881   2.807   2.916   2.837   2.718   2.148   2.404   2.632   2.834   3.082   2.959   2.990   3.130   3.183   3.347   3.507   3.369   3.563   3.351   3.433   3.434   2.853   3.246   2.847   3.173

   Height   Standard deviation at grid points for the v component:
   273.00    2.434   2.434   2.434   2.434   2.434   2.434   2.434   2.434   2.434   2.434   2.434   2.434   2.434   2.434   2.434   2.434   2.434   2.434   2.434   2.434   2.434   2.434   2.434   2.434   2.434
   261.92    2.434   2.434   2.434   2.434   2.434   2.434   2.434   2.434   2.434   2.434   2.434   2.434   2.434   2.434   2.434   2.434   2.434   2.434   2.434   2.434   2.434   2.434   2.434   2.434   2.434
   250.83    2.434   2.434   2.434   2.434   2.434   2.434   2.434   2.434   2.434   2.434   2.434   2.434   2.434   2.434   2.434   2.434   2.434   2.434   2.434   2.434   2.434   2.434   2.434   2.434   2.434
   239.75    2.434   2.434   2.434   2.434   2.434   2.434   2.434   2.434   2.434   2.434   2.434   2.434   2.434   2.434   2.434   2.434   2.434   2.434   2.434   2.434   2.434   2.434   2.434   2.434   2.434
   228.67    2.434   2.434   2.434   2.434   2.434   2.434   2.434   2.434   2.434   2.434   2.434   2.434   2.434   2.434   2.434   2.434   2.434   2.434   2.434   2.434   2.434   2.434   2.434   2.434   2.434
   217.58    2.434   2.434   2.434   2.434   2.434   2.434   2.434   2.434   2.434   2.434   2.434   2.434   2.434   2.434   2.434   2.434   2.434   2.434   2.434   2.434   2.434   2.434   2.434   2.434   2.434
   206.50    2.434   2.434   2.434   2.434   2.434   2.434   2.434   2.434   2.434   2.434   2.434   2.434   2.434   2.434   2.434   2.434   2.434   2.434   2.434   2.434   2.434   2.434   2.434   2.434   2.434
   195.42    2.434   2.434   2.434   2.434   2.434   2.434   2.434   2.434   2.434   2.434   2.434   2.434   2.434   2.434   2.434   2.434   2.434   2.434   2.434   2.434   2.434   2.434   2.434   2.434   2.434
   184.33    2.434   2.434   2.434   2.434   2.434   2.434   2.434   2.434   2.434   2.434   2.434   2.434   2.434   2.434   2.434   2.434   2.434   2.434   2.434   2.434   2.434   2.434   2.434   2.434   2.434
   173.25    2.434   2.434   2.434   2.434   2.434   2.434   2.434   2.434   2.434   2.434   2.434   2.434   2.434   2.434   2.434   2.434   2.434   2.434   2.434   2.434   2.434   2.434   2.434   2.434   2.434
   162.17    2.434   2.434   2.434   2.434   2.434   2.434   2.434   2.434   2.434   2.434   2.434   2.434   2.434   2.434   2.434   2.434   2.434   2.434   2.434   2.434   2.434   2.434   2.434   2.434   2.434
   151.08    2.434   2.434   2.434   2.434   2.434   2.434   2.434   2.434   2.434   2.434   2.434   2.434   2.434   2.434   2.434   2.434   2.434   2.434   2.434   2.434   2.434   2.434   2.434   2.434   2.434
   140.00    2.434   2.434   2.434   2.434   2.434   2.434   2.434   2.434   2.434   2.434   2.434   2.434   2.434   2.434   2.434   2.434   2.434   2.434   2.434   2.434   2.434   2.434   2.434   2.434   2.434
   128.92    2.434   2.434   2.434   2.434   2.434   2.434   2.434   2.434   2.434   2.434   2.434   2.434   2.434   2.434   2.434   2.434   2.434   2.434   2.434   2.434   2.434   2.434   2.434   2.434   2.434
   117.83    2.434   2.434   2.434   2.434   2.434   2.434   2.434   2.434   2.434   2.434   2.434   2.434   2.434   2.434   2.434   2.434   2.434   2.434   2.434   2.434   2.434   2.434   2.434   2.434   2.434
   106.75    2.434   2.434   2.434   2.434   2.434   2.434   2.434   2.434   2.434   2.434   2.434   2.434   2.434   2.434   2.434   2.434   2.434   2.434   2.434   2.434   2.434   2.434   2.434   2.434   2.434
    95.67    2.434   2.434   2.434   2.434   2.434   2.434   2.434   2.434   2.434   2.434   2.434   2.434   2.434   2.434   2.434   2.434   2.434   2.434   2.434   2.434   2.434   2.434   2.434   2.434   2.434
    84.58    2.434   2.434   2.434   2.434   2.434   2.434   2.434   2.434   2.434   2.434   2.434   2.434   2.434   2.434   2.434   2.434   2.434   2.434   2.434   2.434   2.434   2.434   2.434   2.434   2.434
    73.50    2.434   2.434   2.434   2.434   2.434   2.434   2.434   2.434   2.434   2.434   2.434   2.434   2.434   2.434   2.434   2.434   2.434   2.434   2.434   2.434   2.434   2.434   2.434   2.434   2.434
    62.42    2.434   2.434   2.434   2.434   2.434   2.434   2.434   2.434   2.434   2.434   2.434   2.434   2.434   2.434   2.434   2.434   2.434   2.434   2.434   2.434   2.434   2.434   2.434   2.434   2.434
    51.33    2.434   2.434   2.434   2.434   2.434   2.434   2.434   2.434   2.434   2.434   2.434   2.434   2.434   2.434   2.434   2.434   2.434   2.434   2.434   2.434   2.434   2.434   2.434   2.434   2.434
    40.25    2.434   2.434   2.434   2.434   2.434   2.434   2.434   2.434   2.434   2.434   2.434   2.434   2.434   2.434   2.434   2.434   2.434   2.434   2.434   2.434   2.434   2.434   2.434   2.434   2.434
    29.17    2.434   2.434   2.434   2.434   2.434   2.434   2.434   2.434   2.434   2.434   2.434   2.434   2.434   2.434   2.434   2.434   2.434   2.434   2.434   2.434   2.434   2.434   2.434   2.434   2.434
    18.08    2.434   2.434   2.434   2.434   2.434   2.434   2.434   2.434   2.434   2.434   2.434   2.434   2.434   2.434   2.434   2.434   2.434   2.434   2.434   2.434   2.434   2.434   2.434   2.434   2.434
     7.00    2.434   2.434   2.434   2.434   2.434   2.434   2.434   2.434   2.434   2.434   2.434   2.434   2.434   2.434   2.434   2.434   2.434   2.434   2.434   2.434   2.434   2.434   2.434   2.434   2.434

   Height   Standard deviation at grid points for the w component:
   273.00    1.534   1.534   1.534   1.534   1.534   1.534   1.534   1.534   1.534   1.534   1.534   1.534   1.534   1.534   1.534   1.534   1.534   1.534   1.534   1.534   1.534   1.534   1.534   1.534   1.534
   261.92    1.534   1.534   1.534   1.534   1.534   1.534   1.534   1.534   1.534   1.534   1.534   1.534   1.534   1.534   1.534   1.534   1.534   1.534   1.534   1.534   1.534   1.534   1.534   1.534   1.534
   250.83    1.534   1.534   1.534   1.534   1.534   1.534   1.534   1.534   1.534   1.534   1.534   1.534   1.534   1.534   1.534   1.534   1.534   1.534   1.534   1.534   1.534   1.534   1.534   1.534   1.534
   239.75    1.534   1.534   1.534   1.534   1.534   1.534   1.534   1.534   1.534   1.534   1.534   1.534   1.534   1.534   1.534   1.534   1.534   1.534   1.534   1.534   1.534   1.534   1.534   1.534   1.534
   228.67    1.534   1.534   1.534   1.534   1.534   1.534   1.534   1.534   1.534   1.534   1.534   1.534   1.534   1.534   1.534   1.534   1.534   1.534   1.534   1.534   1.534   1.534   1.534   1.534   1.534
   217.58    1.534   1.534   1.534   1.534   1.534   1.534   1.534   1.534   1.534   1.534   1.534   1.534   1.534   1.534   1.534   1.534   1.534   1.534   1.534   1.534   1.534   1.534   1.534   1.534   1.534
   206.50    1.534   1.534   1.534   1.534   1.534   1.534   1.534   1.534   1.534   1.534   1.534   1.534   1.534   1.534   1.534   1.534   1.534   1.534   1.534   1.534   1.534   1.534   1.534   1.534   1.534
   195.42    1.534   1.534   1.534   1.534   1.534   1.534   1.534   1.534   1.534   1.534   1.534   1.534   1.534   1.534   1.534   1.534   1.534   1.534   1.534   1.534   1.534   1.534   1.534   1.534   1.534
   184.33    1.534   1.534   1.534   1.534   1.534   1.534   1.534   1.534   1.534   1.534   1.534   1.534   1.534   1.534   1.534   1.534   1.534   1.534   1.534   1.534   1.534   1.534   1.534   1.534   1.534
   173.25    1.534   1.534   1.534   1.534   1.534   1.534   1.534   1.534   1.534   1.534   1.534   1.534   1.534   1.534   1.534   1.534   1.534   1.534   1.534   1.534   1.534   1.534   1.534   1.534   1.534
   162.17    1.534   1.534   1.534   1.534   1.534   1.534   1.534   1.534   1.534   1.534   1.534   1.534   1.534   1.534   1.534   1.534   1.534   1.534   1.534   1.534   1.534   1.534   1.534   1.534   1.534
   151.08    1.534   1.534   1.534   1.534   1.534   1.534   1.534   1.534   1.534   1.534   1.534   1.534   1.534   1.534   1.534   1.534   1.534   1.534   1.534   1.534   1.534   1.534   1.534   1.534   1.534
   140.00    1.534   1.534   1.534   1.534   1.534   1.534   1.534   1.534   1.534   1.534   1.534   1.534   1.534   1.534   1.534   1.534   1.534   1.534   1.534   1.534   1.534   1.534   1.534   1.534   1.534
   128.92    1.534   1.534   1.534   1.534   1.534   1.534   1.534   1.534   1.534   1.534   1.534   1.534   1.534   1.534   1.534   1.534   1.534   1.534   1.534   1.534   1.534   1.534   1.534   1.534   1.534
   117.83    1.534   1.534   1.534   1.534   1.534   1.534   1.534   1.534   1.534   1.534   1.534   1.534   1.534   1.534   1.534   1.534   1.534   1.534   1.534   1.534   1.534   1.534   1.534   1.534   1.534
   106.75    1.534   1.534   1.534   1.534   1.534   1.534   1.534   1.534   1.534   1.534   1.534   1.534   1.534   1.534   1.534   1.534   1.534   1.534   1.534   1.534   1.534   1.534   1.534   1.534   1.534
    95.67    1.534   1.534   1.534   1.534   1.534   1.534   1.534   1.534   1.534   1.534   1.534   1.534   1.534   1.534   1.534   1.534   1.534   1.534   1.534   1.534   1.534   1.534   1.534   1.534   1.534
    84.58    1.534   1.534   1.534   1.534   1.534   1.534   1.534   1.534   1.534   1.534   1.534   1.534   1.534   1.534   1.534   1.534   1.534   1.534   1.534   1.534   1.534   1.534   1.534   1.534   1.534
    73.50    1.534   1.534   1.534   1.534   1.534   1.534   1.534   1.534   1.534   1.534   1.534   1.534   1.534   1.534   1.534   1.534   1.534   1.534   1.534   1.534   1.534   1.534   1.534   1.534   1.534
    62.42    1.534   1.534   1.534   1.534   1.534   1.534   1.534   1.534   1.534   1.534   1.534   1.534   1.534   1.534   1.534   1.534   1.534   1.534   1.534   1.534   1.534   1.534   1.534   1.534   1.534
    51.33    1.534   1.534   1.534   1.534   1.534   1.534   1.534   1.534   1.534   1.534   1.534   1.534   1.534   1.534   1.534   1.534   1.534   1.534   1.534   1.534   1.534   1.534   1.534   1.534   1.534
    40.25    1.534   1.534   1.534   1.534   1.534   1.534   1.534   1.534   1.534   1.534   1.534   1.534   1.534   1.534   1.534   1.534   1.534   1.534   1.534   1.534   1.534   1.534   1.534   1.534   1.534
    29.17    1.534   1.534   1.534   1.534   1.534   1.534   1.534   1.534   1.534   1.534   1.534   1.534   1.534   1.534   1.534   1.534   1.534   1.534   1.534   1.534   1.534   1.534   1.534   1.534   1.534
    18.08    1.534   1.534   1.534   1.534   1.534   1.534   1.534   1.534   1.534   1.534   1.534   1.534   1.534   1.534   1.534   1.534   1.534   1.534   1.534   1.534   1.534   1.534   1.534   1.534   1.534
     7.00    1.534   1.534   1.534   1.534   1.534   1.534   1.534   1.534   1.534   1.534   1.534   1.534   1.534   1.534   1.534   1.534   1.534   1.534   1.534   1.534   1.534   1.534   1.534   1.534   1.534

   Mean standard deviation across all grid points:
      u component:    2.945 m/s
      v component:    2.434 m/s
      w component:    1.534 m/s


U-component (X) statistics from the interpolated hub point:

   Mean =  19.0000 m/s
   TI   =  14.2874 %


Processing complete.  50.022 CPU seconds used.
