
This summary file was generated by TurbSim (v2.00.08a-bjj, 18-Jul-2017) on 24-Jul-2020 at 16:32:10.


Runtime Options:

        12  Random seed #1
    RANLUX  Type of random number generator
         F  Output binary HH turbulence parameters?
         F  Output formatted turbulence parameters?
         F  Output AeroDyn HH files?
         T  Output AeroDyn FF files?
         F  Output BLADED FF files?
         F  Output tower data?
         F  Output formatted FF files?
         F  Output coherent turbulence time step file?
         T  Clockwise rotation when looking downwind?
 0 -  NONE  IEC turbulence models scaled to exact specified standard deviation


Turbine/Model Specifications:

        25  Vertical grid-point matrix dimension
        25  Horizontal grid-point matrix dimension
     0.050  Time step [seconds]
   180.000  Analysis time [seconds]
   180.000  Usable output time [seconds]
   140.000  Hub height [m]
   266.000  Grid height [m]
   266.000  Grid width [m]
     0.000  Vertical flow angle [degrees]
     0.000  Horizontal flow angle [degrees]


Meteorological Boundary Conditions:

    IECKAI  IEC Kaimal spectral model
         1  IEC standard: IEC 61400-1 Ed. 3: 2005
         A  IEC turbulence characteristic
       NTM  IEC Normal Turbulence Model
       N/A  IEC Extreme Turbulence Model (ETM) "c" parameter [m/s]
       PL   Wind profile type
   140.000  Reference height [m]
     5.000  Reference wind speed [m/s]
       N/A  Jet height [m]
     0.200  Power law exponent
     0.030  Surface roughness length [m]


Non-IEC Meteorological Boundary Conditions:

       N/A  Site latitude [degrees]
       N/A  Gradient Richardson number
       N/A  Friction or shear velocity [m/s]
       N/A  Mixing layer depth [m]
       N/A  Mean hub u'w' Reynolds stress
       N/A  Mean hub u'v' Reynolds stress
       N/A  Mean hub v'w' Reynolds stress


Spatial Coherence Models:

   GENERAL  u-component coherence model
   GENERAL  v-component coherence model
   GENERAL  w-component coherence model
(   12.000, 0.353E-03)  u-component coherence parameters
(*********,  0.00    )  v-component coherence parameters
(*********,  0.00    )  w-component coherence parameters
     0.000  Coherence exponent


You have requested that the following file(s) be generated:

   /home/mertzb/Documents/Analysis/BAR10/temp/Testing/Testing_powercurve_NTM_U5.000000_Seed12.0.bts (AeroDyn/TurbSim full-field wind file)


Turbulence Simulation Scaling Parameter Summary:

   Turbulence model used                            =  IEC Kaimal
   Turbulence characteristic                        =  A
   IEC turbulence type                              =  Normal Turbulence Model
   IEC standard                                     =  IEC 61400-1 Ed. 3: 2005
   Mean wind speed at hub height                    =    5.000 m/s
   Expected value of turbulence intensity at 15 m/s =   16.000%
   Characteristic value of standard deviation       =    1.496 m/s
   Turbulence scale                                 =   42.000 m
   u-component integral scale                       =  340.200 m
   Coherency scale                                  =  340.200 m
   Characteristic value of hub turbulence intensity =   29.920%
   Gradient Richardson number                       =    0.000

   Wind profile type                                =  Power law
   Power law exponent                               =    0.200
   Mean shear across rotor disk                     =    0.011 (m/s)/m
   Assumed rotor diameter                           =  266.000 m
   Surface roughness length                         =    0.030 m

   Nyquist frequency of turbulent wind field        =   10.000 Hz

   Number of time steps in the FFT                  =     3600
   Number of time steps output                      =     3600
   Number of points simulated                       =      625


Mean Flow Angles:

   Vertical   =   0.0 degrees
   Horizontal =   0.0 degrees

Mean Wind Speed Profile:

   Height    Wind Speed   Horizontal Angle  Vertical Angle  U-comp (X)   V-comp (Y)   W-comp (Z)
     (m)        (m/s)         (degrees)       (degrees)       (m/s)        (m/s)        (m/s)   
   ------    ----------   ----------------  --------------  ----------   ----------   ----------
    273.0        5.71            0.00            0.00          5.71         0.00         0.00
    261.9        5.67            0.00            0.00          5.67         0.00         0.00
    250.8        5.62            0.00            0.00          5.62         0.00         0.00
    239.8        5.57            0.00            0.00          5.57         0.00         0.00
    228.7        5.52            0.00            0.00          5.52         0.00         0.00
    217.6        5.46            0.00            0.00          5.46         0.00         0.00
    206.5        5.40            0.00            0.00          5.40         0.00         0.00
    195.4        5.34            0.00            0.00          5.34         0.00         0.00
    184.3        5.28            0.00            0.00          5.28         0.00         0.00
    173.2        5.22            0.00            0.00          5.22         0.00         0.00
    162.2        5.15            0.00            0.00          5.15         0.00         0.00
    151.1        5.08            0.00            0.00          5.08         0.00         0.00
    140.0        5.00            0.00            0.00          5.00         0.00         0.00
    128.9        4.92            0.00            0.00          4.92         0.00         0.00
    117.8        4.83            0.00            0.00          4.83         0.00         0.00
    106.8        4.74            0.00            0.00          4.74         0.00         0.00
     95.7        4.63            0.00            0.00          4.63         0.00         0.00
     84.6        4.52            0.00            0.00          4.52         0.00         0.00
     73.5        4.40            0.00            0.00          4.40         0.00         0.00
     62.4        4.25            0.00            0.00          4.25         0.00         0.00
     51.3        4.09            0.00            0.00          4.09         0.00         0.00
     40.2        3.90            0.00            0.00          3.90         0.00         0.00
     29.2        3.65            0.00            0.00          3.65         0.00         0.00
     18.1        3.32            0.00            0.00          3.32         0.00         0.00
      7.0        2.75            0.00            0.00          2.75         0.00         0.00


Harvested Random Seeds after Generation of the Random Numbers:

     31359375 K 1
            0 K 2


Hub-Height Simulated Turbulence Statistical Summary:

   Type of Wind        Min (m/s)   Mean (m/s)    Max (m/s)  Sigma (m/s)       TI (%)
   ----------------    ---------   ----------    ---------  -----------       ------
   Longitudinal (u)         2.14         5.00         8.94        1.202       24.044
   Lateral (v)             -3.34         0.00         3.78        1.063       21.261
   Vertical (w)            -2.15        -0.00         2.03        0.718       14.355
   U component              2.14         5.00         8.94        1.202       24.044
   V component             -3.34         0.00         3.78        1.063       21.261
   W component             -2.15        -0.00         2.03        0.718       14.355
   Horizontal (U&V)         2.31         5.12         8.99        1.152       22.492
   Total                    2.47         5.17         8.99        1.146       22.151

                       Min Reynolds     Mean Reynolds    Max Reynolds    Correlation
   Product             Stress (m/s)^2   Stress (m/s)^2   Stress (m/s)^2  Coefficient
   ----------------    --------------   --------------   --------------  -----------
   u'w'                     -2.916             0.204             6.222         0.237
   u'v'                     -8.251            -0.312             5.180        -0.244
   v'w'                     -4.049            -0.040             3.022        -0.052


   Friction Velocity (Ustar)  =      0.452 m/s
   Maximum Instantaneous TKE  =      9.331 (m/s)^2
   Maximum Instantaneous CTKE =      4.132 (m/s)^2


Grid Point Variance Summary:

   Y-coord -133.00 -121.92 -110.83  -99.75  -88.67  -77.58  -66.50  -55.42  -44.33  -33.25  -22.17  -11.08    0.00   11.08   22.17   33.25   44.33   55.42   66.50   77.58   88.67   99.75  110.83  121.92  133.00

   Height   Standard deviation at grid points for the u component:
   273.00    0.883   0.942   0.866   1.273   1.236   1.368   1.393   1.253   1.366   1.038   0.938   0.856   0.838   0.855   0.936   1.148   1.161   1.207   1.297   0.926   0.949   0.957   1.028   1.033   1.040
   261.92    0.771   0.956   1.110   1.133   1.318   1.354   1.324   1.382   1.352   1.074   1.068   0.872   0.895   0.839   1.128   1.298   1.396   1.227   1.279   0.969   0.844   1.146   1.310   1.145   1.192
   250.83    1.036   0.868   1.015   1.255   1.336   0.952   1.205   0.935   1.013   1.104   1.210   1.212   1.171   1.066   1.129   1.425   1.397   1.300   1.076   1.074   1.074   1.214   1.057   0.947   1.159
   239.75    1.222   0.919   0.934   1.140   1.127   0.955   1.045   1.246   1.014   1.081   1.183   1.024   1.222   1.589   1.289   1.164   1.451   1.674   1.326   1.430   1.221   1.033   0.894   0.961   1.098
   228.67    1.119   0.890   0.804   1.022   0.808   0.998   0.899   0.991   1.291   1.301   1.438   1.289   1.609   1.588   1.539   1.448   1.595   1.552   1.434   1.439   1.015   1.158   1.280   1.101   0.974
   217.58    1.010   1.097   1.041   0.930   1.026   0.977   1.066   0.968   1.130   1.042   1.250   1.330   1.794   1.783   1.833   1.400   1.507   1.291   1.255   1.072   1.042   1.102   1.025   1.048   1.144
   206.50    0.950   1.161   0.997   0.876   0.974   0.878   0.862   1.039   1.189   1.192   1.176   1.657   1.776   1.719   1.380   1.394   1.279   1.389   1.073   1.053   1.020   0.956   1.098   0.955   1.161
   195.42    0.988   1.037   0.968   0.911   1.133   1.064   0.756   0.885   0.941   1.317   1.504   1.735   1.615   1.481   1.535   1.376   1.087   1.290   1.388   1.114   1.130   0.812   0.872   0.898   1.074
   184.33    0.831   1.010   0.952   0.807   1.106   1.016   0.869   0.894   0.828   1.240   1.368   1.474   1.575   1.641   1.504   1.451   0.965   1.115   1.088   1.107   0.933   0.876   0.745   0.818   1.172
   173.25    1.047   1.101   0.920   0.871   0.998   1.005   1.046   1.239   1.205   1.195   1.327   1.097   1.336   1.365   1.150   1.310   1.028   1.017   0.934   1.104   0.828   0.821   0.932   0.894   0.999
   162.17    1.222   0.971   1.015   0.960   0.897   0.834   1.101   1.097   1.236   1.075   1.150   0.998   1.117   1.305   1.476   1.220   1.253   0.903   0.954   0.859   1.041   1.050   1.037   1.037   0.904
   151.08    1.232   1.037   1.160   0.949   0.995   1.112   1.099   1.227   0.994   0.830   0.907   0.895   1.367   1.365   1.582   1.168   1.239   0.973   0.810   1.164   1.206   0.915   1.040   0.893   0.839
   140.00    1.389   0.998   0.978   1.009   0.987   1.000   1.122   1.028   1.016   0.951   0.764   0.984   1.202   1.451   1.316   1.213   1.506   1.107   1.249   1.176   1.145   0.935   0.859   0.879   0.773
   128.92    1.222   1.157   1.275   1.100   0.840   1.033   1.192   1.106   1.111   1.020   0.955   1.164   1.175   1.288   0.902   1.070   1.215   1.473   1.302   1.453   1.468   1.147   1.223   1.038   0.913
   117.83    1.168   1.149   1.231   1.080   0.990   1.082   1.064   0.839   0.994   1.022   0.892   1.043   1.124   1.054   1.134   1.013   1.032   1.351   1.101   1.259   1.371   1.132   0.995   1.083   1.097
   106.75    1.248   1.172   0.975   1.091   1.281   1.160   0.947   0.829   0.897   1.011   0.909   0.789   0.990   0.900   1.129   1.295   1.360   1.629   1.215   1.385   1.256   0.901   1.032   1.217   1.298
    95.67    1.029   0.946   1.109   1.043   1.244   1.124   0.926   0.956   0.921   1.137   0.994   0.900   0.962   0.952   0.971   1.262   1.520   1.480   1.558   1.162   1.106   0.935   1.018   1.279   1.455
    84.58    1.218   1.077   0.793   0.945   1.190   1.081   0.928   0.906   0.862   0.888   0.951   0.839   0.804   1.000   1.482   1.260   1.302   1.449   1.380   1.006   0.983   1.030   0.949   1.009   1.407
    73.50    1.158   0.911   0.955   0.854   0.908   1.174   1.111   1.005   0.903   0.942   0.909   0.860   0.846   0.971   1.232   1.293   1.468   1.390   1.377   1.193   1.118   0.965   1.141   1.056   1.316
    62.42    1.285   1.157   0.904   1.037   1.074   1.079   1.067   0.767   0.937   0.997   1.081   1.010   1.019   1.313   1.210   1.125   1.062   1.167   0.958   1.003   0.982   0.994   0.895   1.142   1.302
    51.33    1.280   1.067   0.983   1.090   1.080   0.953   1.000   0.841   0.819   0.938   0.935   1.025   1.187   1.266   1.275   1.051   1.026   0.935   1.081   1.007   1.061   1.106   1.265   1.265   1.192
    40.25    1.358   1.090   1.027   0.833   0.944   0.835   0.942   0.859   1.046   1.073   1.113   1.079   1.225   1.113   1.277   0.942   0.947   0.876   0.917   1.045   1.287   1.054   1.330   1.463   1.466
    29.17    1.123   1.178   1.203   0.973   0.978   0.924   1.005   1.077   0.834   1.161   1.376   0.942   1.055   1.318   1.296   1.172   1.231   1.175   0.931   1.026   1.080   1.169   0.994   1.081   0.994
    18.08    1.182   1.438   1.176   0.895   0.818   0.901   0.873   0.982   0.795   1.026   1.303   1.269   1.171   1.280   1.311   1.246   1.276   1.111   1.239   1.107   1.018   1.054   1.168   1.195   1.113
     7.00    1.134   1.123   1.344   1.009   0.854   0.900   0.804   1.055   1.026   1.089   1.131   1.297   1.224   1.026   1.175   1.326   1.233   1.325   1.093   1.072   1.174   0.830   0.979   0.997   1.235

   Height   Standard deviation at grid points for the v component:
   273.00    1.063   1.063   1.063   1.063   1.063   1.063   1.063   1.063   1.063   1.063   1.063   1.063   1.063   1.063   1.063   1.063   1.063   1.063   1.063   1.063   1.063   1.063   1.063   1.063   1.063
   261.92    1.063   1.063   1.063   1.063   1.063   1.063   1.063   1.063   1.063   1.063   1.063   1.063   1.063   1.063   1.063   1.063   1.063   1.063   1.063   1.063   1.063   1.063   1.063   1.063   1.063
   250.83    1.063   1.063   1.063   1.063   1.063   1.063   1.063   1.063   1.063   1.063   1.063   1.063   1.063   1.063   1.063   1.063   1.063   1.063   1.063   1.063   1.063   1.063   1.063   1.063   1.063
   239.75    1.063   1.063   1.063   1.063   1.063   1.063   1.063   1.063   1.063   1.063   1.063   1.063   1.063   1.063   1.063   1.063   1.063   1.063   1.063   1.063   1.063   1.063   1.063   1.063   1.063
   228.67    1.063   1.063   1.063   1.063   1.063   1.063   1.063   1.063   1.063   1.063   1.063   1.063   1.063   1.063   1.063   1.063   1.063   1.063   1.063   1.063   1.063   1.063   1.063   1.063   1.063
   217.58    1.063   1.063   1.063   1.063   1.063   1.063   1.063   1.063   1.063   1.063   1.063   1.063   1.063   1.063   1.063   1.063   1.063   1.063   1.063   1.063   1.063   1.063   1.063   1.063   1.063
   206.50    1.063   1.063   1.063   1.063   1.063   1.063   1.063   1.063   1.063   1.063   1.063   1.063   1.063   1.063   1.063   1.063   1.063   1.063   1.063   1.063   1.063   1.063   1.063   1.063   1.063
   195.42    1.063   1.063   1.063   1.063   1.063   1.063   1.063   1.063   1.063   1.063   1.063   1.063   1.063   1.063   1.063   1.063   1.063   1.063   1.063   1.063   1.063   1.063   1.063   1.063   1.063
   184.33    1.063   1.063   1.063   1.063   1.063   1.063   1.063   1.063   1.063   1.063   1.063   1.063   1.063   1.063   1.063   1.063   1.063   1.063   1.063   1.063   1.063   1.063   1.063   1.063   1.063
   173.25    1.063   1.063   1.063   1.063   1.063   1.063   1.063   1.063   1.063   1.063   1.063   1.063   1.063   1.063   1.063   1.063   1.063   1.063   1.063   1.063   1.063   1.063   1.063   1.063   1.063
   162.17    1.063   1.063   1.063   1.063   1.063   1.063   1.063   1.063   1.063   1.063   1.063   1.063   1.063   1.063   1.063   1.063   1.063   1.063   1.063   1.063   1.063   1.063   1.063   1.063   1.063
   151.08    1.063   1.063   1.063   1.063   1.063   1.063   1.063   1.063   1.063   1.063   1.063   1.063   1.063   1.063   1.063   1.063   1.063   1.063   1.063   1.063   1.063   1.063   1.063   1.063   1.063
   140.00    1.063   1.063   1.063   1.063   1.063   1.063   1.063   1.063   1.063   1.063   1.063   1.063   1.063   1.063   1.063   1.063   1.063   1.063   1.063   1.063   1.063   1.063   1.063   1.063   1.063
   128.92    1.063   1.063   1.063   1.063   1.063   1.063   1.063   1.063   1.063   1.063   1.063   1.063   1.063   1.063   1.063   1.063   1.063   1.063   1.063   1.063   1.063   1.063   1.063   1.063   1.063
   117.83    1.063   1.063   1.063   1.063   1.063   1.063   1.063   1.063   1.063   1.063   1.063   1.063   1.063   1.063   1.063   1.063   1.063   1.063   1.063   1.063   1.063   1.063   1.063   1.063   1.063
   106.75    1.063   1.063   1.063   1.063   1.063   1.063   1.063   1.063   1.063   1.063   1.063   1.063   1.063   1.063   1.063   1.063   1.063   1.063   1.063   1.063   1.063   1.063   1.063   1.063   1.063
    95.67    1.063   1.063   1.063   1.063   1.063   1.063   1.063   1.063   1.063   1.063   1.063   1.063   1.063   1.063   1.063   1.063   1.063   1.063   1.063   1.063   1.063   1.063   1.063   1.063   1.063
    84.58    1.063   1.063   1.063   1.063   1.063   1.063   1.063   1.063   1.063   1.063   1.063   1.063   1.063   1.063   1.063   1.063   1.063   1.063   1.063   1.063   1.063   1.063   1.063   1.063   1.063
    73.50    1.063   1.063   1.063   1.063   1.063   1.063   1.063   1.063   1.063   1.063   1.063   1.063   1.063   1.063   1.063   1.063   1.063   1.063   1.063   1.063   1.063   1.063   1.063   1.063   1.063
    62.42    1.063   1.063   1.063   1.063   1.063   1.063   1.063   1.063   1.063   1.063   1.063   1.063   1.063   1.063   1.063   1.063   1.063   1.063   1.063   1.063   1.063   1.063   1.063   1.063   1.063
    51.33    1.063   1.063   1.063   1.063   1.063   1.063   1.063   1.063   1.063   1.063   1.063   1.063   1.063   1.063   1.063   1.063   1.063   1.063   1.063   1.063   1.063   1.063   1.063   1.063   1.063
    40.25    1.063   1.063   1.063   1.063   1.063   1.063   1.063   1.063   1.063   1.063   1.063   1.063   1.063   1.063   1.063   1.063   1.063   1.063   1.063   1.063   1.063   1.063   1.063   1.063   1.063
    29.17    1.063   1.063   1.063   1.063   1.063   1.063   1.063   1.063   1.063   1.063   1.063   1.063   1.063   1.063   1.063   1.063   1.063   1.063   1.063   1.063   1.063   1.063   1.063   1.063   1.063
    18.08    1.063   1.063   1.063   1.063   1.063   1.063   1.063   1.063   1.063   1.063   1.063   1.063   1.063   1.063   1.063   1.063   1.063   1.063   1.063   1.063   1.063   1.063   1.063   1.063   1.063
     7.00    1.063   1.063   1.063   1.063   1.063   1.063   1.063   1.063   1.063   1.063   1.063   1.063   1.063   1.063   1.063   1.063   1.063   1.063   1.063   1.063   1.063   1.063   1.063   1.063   1.063

   Height   Standard deviation at grid points for the w component:
   273.00    0.718   0.718   0.718   0.718   0.718   0.718   0.718   0.718   0.718   0.718   0.718   0.718   0.718   0.718   0.718   0.718   0.718   0.718   0.718   0.718   0.718   0.718   0.718   0.718   0.718
   261.92    0.718   0.718   0.718   0.718   0.718   0.718   0.718   0.718   0.718   0.718   0.718   0.718   0.718   0.718   0.718   0.718   0.718   0.718   0.718   0.718   0.718   0.718   0.718   0.718   0.718
   250.83    0.718   0.718   0.718   0.718   0.718   0.718   0.718   0.718   0.718   0.718   0.718   0.718   0.718   0.718   0.718   0.718   0.718   0.718   0.718   0.718   0.718   0.718   0.718   0.718   0.718
   239.75    0.718   0.718   0.718   0.718   0.718   0.718   0.718   0.718   0.718   0.718   0.718   0.718   0.718   0.718   0.718   0.718   0.718   0.718   0.718   0.718   0.718   0.718   0.718   0.718   0.718
   228.67    0.718   0.718   0.718   0.718   0.718   0.718   0.718   0.718   0.718   0.718   0.718   0.718   0.718   0.718   0.718   0.718   0.718   0.718   0.718   0.718   0.718   0.718   0.718   0.718   0.718
   217.58    0.718   0.718   0.718   0.718   0.718   0.718   0.718   0.718   0.718   0.718   0.718   0.718   0.718   0.718   0.718   0.718   0.718   0.718   0.718   0.718   0.718   0.718   0.718   0.718   0.718
   206.50    0.718   0.718   0.718   0.718   0.718   0.718   0.718   0.718   0.718   0.718   0.718   0.718   0.718   0.718   0.718   0.718   0.718   0.718   0.718   0.718   0.718   0.718   0.718   0.718   0.718
   195.42    0.718   0.718   0.718   0.718   0.718   0.718   0.718   0.718   0.718   0.718   0.718   0.718   0.718   0.718   0.718   0.718   0.718   0.718   0.718   0.718   0.718   0.718   0.718   0.718   0.718
   184.33    0.718   0.718   0.718   0.718   0.718   0.718   0.718   0.718   0.718   0.718   0.718   0.718   0.718   0.718   0.718   0.718   0.718   0.718   0.718   0.718   0.718   0.718   0.718   0.718   0.718
   173.25    0.718   0.718   0.718   0.718   0.718   0.718   0.718   0.718   0.718   0.718   0.718   0.718   0.718   0.718   0.718   0.718   0.718   0.718   0.718   0.718   0.718   0.718   0.718   0.718   0.718
   162.17    0.718   0.718   0.718   0.718   0.718   0.718   0.718   0.718   0.718   0.718   0.718   0.718   0.718   0.718   0.718   0.718   0.718   0.718   0.718   0.718   0.718   0.718   0.718   0.718   0.718
   151.08    0.718   0.718   0.718   0.718   0.718   0.718   0.718   0.718   0.718   0.718   0.718   0.718   0.718   0.718   0.718   0.718   0.718   0.718   0.718   0.718   0.718   0.718   0.718   0.718   0.718
   140.00    0.718   0.718   0.718   0.718   0.718   0.718   0.718   0.718   0.718   0.718   0.718   0.718   0.718   0.718   0.718   0.718   0.718   0.718   0.718   0.718   0.718   0.718   0.718   0.718   0.718
   128.92    0.718   0.718   0.718   0.718   0.718   0.718   0.718   0.718   0.718   0.718   0.718   0.718   0.718   0.718   0.718   0.718   0.718   0.718   0.718   0.718   0.718   0.718   0.718   0.718   0.718
   117.83    0.718   0.718   0.718   0.718   0.718   0.718   0.718   0.718   0.718   0.718   0.718   0.718   0.718   0.718   0.718   0.718   0.718   0.718   0.718   0.718   0.718   0.718   0.718   0.718   0.718
   106.75    0.718   0.718   0.718   0.718   0.718   0.718   0.718   0.718   0.718   0.718   0.718   0.718   0.718   0.718   0.718   0.718   0.718   0.718   0.718   0.718   0.718   0.718   0.718   0.718   0.718
    95.67    0.718   0.718   0.718   0.718   0.718   0.718   0.718   0.718   0.718   0.718   0.718   0.718   0.718   0.718   0.718   0.718   0.718   0.718   0.718   0.718   0.718   0.718   0.718   0.718   0.718
    84.58    0.718   0.718   0.718   0.718   0.718   0.718   0.718   0.718   0.718   0.718   0.718   0.718   0.718   0.718   0.718   0.718   0.718   0.718   0.718   0.718   0.718   0.718   0.718   0.718   0.718
    73.50    0.718   0.718   0.718   0.718   0.718   0.718   0.718   0.718   0.718   0.718   0.718   0.718   0.718   0.718   0.718   0.718   0.718   0.718   0.718   0.718   0.718   0.718   0.718   0.718   0.718
    62.42    0.718   0.718   0.718   0.718   0.718   0.718   0.718   0.718   0.718   0.718   0.718   0.718   0.718   0.718   0.718   0.718   0.718   0.718   0.718   0.718   0.718   0.718   0.718   0.718   0.718
    51.33    0.718   0.718   0.718   0.718   0.718   0.718   0.718   0.718   0.718   0.718   0.718   0.718   0.718   0.718   0.718   0.718   0.718   0.718   0.718   0.718   0.718   0.718   0.718   0.718   0.718
    40.25    0.718   0.718   0.718   0.718   0.718   0.718   0.718   0.718   0.718   0.718   0.718   0.718   0.718   0.718   0.718   0.718   0.718   0.718   0.718   0.718   0.718   0.718   0.718   0.718   0.718
    29.17    0.718   0.718   0.718   0.718   0.718   0.718   0.718   0.718   0.718   0.718   0.718   0.718   0.718   0.718   0.718   0.718   0.718   0.718   0.718   0.718   0.718   0.718   0.718   0.718   0.718
    18.08    0.718   0.718   0.718   0.718   0.718   0.718   0.718   0.718   0.718   0.718   0.718   0.718   0.718   0.718   0.718   0.718   0.718   0.718   0.718   0.718   0.718   0.718   0.718   0.718   0.718
     7.00    0.718   0.718   0.718   0.718   0.718   0.718   0.718   0.718   0.718   0.718   0.718   0.718   0.718   0.718   0.718   0.718   0.718   0.718   0.718   0.718   0.718   0.718   0.718   0.718   0.718

   Mean standard deviation across all grid points:
      u component:    1.113 m/s
      v component:    1.063 m/s
      w component:    0.718 m/s


U-component (X) statistics from the interpolated hub point:

   Mean =   5.0000 m/s
   TI   =  24.0441 %


Processing complete.  19.016 CPU seconds used.
