
This summary file was generated by TurbSim (v2.00.08a-bjj, 18-Jul-2017) on 24-Jul-2020 at 16:32:29.


Runtime Options:

        11  Random seed #1
    RANLUX  Type of random number generator
         F  Output binary HH turbulence parameters?
         F  Output formatted turbulence parameters?
         F  Output AeroDyn HH files?
         T  Output AeroDyn FF files?
         F  Output BLADED FF files?
         F  Output tower data?
         F  Output formatted FF files?
         F  Output coherent turbulence time step file?
         T  Clockwise rotation when looking downwind?
 0 -  NONE  IEC turbulence models scaled to exact specified standard deviation


Turbine/Model Specifications:

        25  Vertical grid-point matrix dimension
        25  Horizontal grid-point matrix dimension
     0.050  Time step [seconds]
   180.000  Analysis time [seconds]
   180.000  Usable output time [seconds]
   140.000  Hub height [m]
   266.000  Grid height [m]
   266.000  Grid width [m]
     0.000  Vertical flow angle [degrees]
     0.000  Horizontal flow angle [degrees]


Meteorological Boundary Conditions:

    IECKAI  IEC Kaimal spectral model
         1  IEC standard: IEC 61400-1 Ed. 3: 2005
         A  IEC turbulence characteristic
       NTM  IEC Normal Turbulence Model
       N/A  IEC Extreme Turbulence Model (ETM) "c" parameter [m/s]
       PL   Wind profile type
   140.000  Reference height [m]
     7.000  Reference wind speed [m/s]
       N/A  Jet height [m]
     0.200  Power law exponent
     0.030  Surface roughness length [m]


Non-IEC Meteorological Boundary Conditions:

       N/A  Site latitude [degrees]
       N/A  Gradient Richardson number
       N/A  Friction or shear velocity [m/s]
       N/A  Mixing layer depth [m]
       N/A  Mean hub u'w' Reynolds stress
       N/A  Mean hub u'v' Reynolds stress
       N/A  Mean hub v'w' Reynolds stress


Spatial Coherence Models:

   GENERAL  u-component coherence model
   GENERAL  v-component coherence model
   GENERAL  w-component coherence model
(   12.000, 0.353E-03)  u-component coherence parameters
(*********,  0.00    )  v-component coherence parameters
(*********,  0.00    )  w-component coherence parameters
     0.000  Coherence exponent


You have requested that the following file(s) be generated:

   /home/mertzb/Documents/Analysis/BAR10/temp/Testing/Testing_powercurve_NTM_U7.000000_Seed11.0.bts (AeroDyn/TurbSim full-field wind file)


Turbulence Simulation Scaling Parameter Summary:

   Turbulence model used                            =  IEC Kaimal
   Turbulence characteristic                        =  A
   IEC turbulence type                              =  Normal Turbulence Model
   IEC standard                                     =  IEC 61400-1 Ed. 3: 2005
   Mean wind speed at hub height                    =    7.000 m/s
   Expected value of turbulence intensity at 15 m/s =   16.000%
   Characteristic value of standard deviation       =    1.736 m/s
   Turbulence scale                                 =   42.000 m
   u-component integral scale                       =  340.200 m
   Coherency scale                                  =  340.200 m
   Characteristic value of hub turbulence intensity =   24.800%
   Gradient Richardson number                       =    0.000

   Wind profile type                                =  Power law
   Power law exponent                               =    0.200
   Mean shear across rotor disk                     =    0.016 (m/s)/m
   Assumed rotor diameter                           =  266.000 m
   Surface roughness length                         =    0.030 m

   Nyquist frequency of turbulent wind field        =   10.000 Hz

   Number of time steps in the FFT                  =     3600
   Number of time steps output                      =     3600
   Number of points simulated                       =      625


Mean Flow Angles:

   Vertical   =   0.0 degrees
   Horizontal =   0.0 degrees

Mean Wind Speed Profile:

   Height    Wind Speed   Horizontal Angle  Vertical Angle  U-comp (X)   V-comp (Y)   W-comp (Z)
     (m)        (m/s)         (degrees)       (degrees)       (m/s)        (m/s)        (m/s)   
   ------    ----------   ----------------  --------------  ----------   ----------   ----------
    273.0        8.00            0.00            0.00          8.00         0.00         0.00
    261.9        7.93            0.00            0.00          7.93         0.00         0.00
    250.8        7.87            0.00            0.00          7.87         0.00         0.00
    239.8        7.80            0.00            0.00          7.80         0.00         0.00
    228.7        7.72            0.00            0.00          7.72         0.00         0.00
    217.6        7.65            0.00            0.00          7.65         0.00         0.00
    206.5        7.57            0.00            0.00          7.57         0.00         0.00
    195.4        7.48            0.00            0.00          7.48         0.00         0.00
    184.3        7.40            0.00            0.00          7.40         0.00         0.00
    173.2        7.30            0.00            0.00          7.30         0.00         0.00
    162.2        7.21            0.00            0.00          7.21         0.00         0.00
    151.1        7.11            0.00            0.00          7.11         0.00         0.00
    140.0        7.00            0.00            0.00          7.00         0.00         0.00
    128.9        6.89            0.00            0.00          6.89         0.00         0.00
    117.8        6.76            0.00            0.00          6.76         0.00         0.00
    106.8        6.63            0.00            0.00          6.63         0.00         0.00
     95.7        6.49            0.00            0.00          6.49         0.00         0.00
     84.6        6.33            0.00            0.00          6.33         0.00         0.00
     73.5        6.15            0.00            0.00          6.15         0.00         0.00
     62.4        5.96            0.00            0.00          5.96         0.00         0.00
     51.3        5.73            0.00            0.00          5.73         0.00         0.00
     40.2        5.46            0.00            0.00          5.46         0.00         0.00
     29.2        5.12            0.00            0.00          5.12         0.00         0.00
     18.1        4.65            0.00            0.00          4.65         0.00         0.00
      7.0        3.84            0.00            0.00          3.84         0.00         0.00


Harvested Random Seeds after Generation of the Random Numbers:

     31359375 K 1
            0 K 2


Hub-Height Simulated Turbulence Statistical Summary:

   Type of Wind        Min (m/s)   Mean (m/s)    Max (m/s)  Sigma (m/s)       TI (%)
   ----------------    ---------   ----------    ---------  -----------       ------
   Longitudinal (u)         3.26         7.00        10.83        1.631       23.301
   Lateral (v)             -3.40         0.00         3.55        1.270       18.137
   Vertical (w)            -2.23         0.00         3.45        0.838       11.968
   U component              3.26         7.00        10.83        1.631       23.301
   V component             -3.40         0.00         3.55        1.270       18.137
   W component             -2.23         0.00         3.45        0.838       11.968
   Horizontal (U&V)         3.64         7.12        10.88        1.596       22.410
   Total                    3.64         7.18        10.88        1.576       21.965

                       Min Reynolds     Mean Reynolds    Max Reynolds    Correlation
   Product             Stress (m/s)^2   Stress (m/s)^2   Stress (m/s)^2  Coefficient
   ----------------    --------------   --------------   --------------  -----------
   u'w'                     -7.827            -0.168             4.570        -0.123
   u'v'                     -9.716             0.268             7.995         0.129
   v'w'                     -5.689            -0.020             5.975        -0.019


   Friction Velocity (Ustar)  =      0.410 m/s
   Maximum Instantaneous TKE  =     10.499 (m/s)^2
   Maximum Instantaneous CTKE =      5.258 (m/s)^2


Grid Point Variance Summary:

   Y-coord -133.00 -121.92 -110.83  -99.75  -88.67  -77.58  -66.50  -55.42  -44.33  -33.25  -22.17  -11.08    0.00   11.08   22.17   33.25   44.33   55.42   66.50   77.58   88.67   99.75  110.83  121.92  133.00

   Height   Standard deviation at grid points for the u component:
   273.00    1.602   1.608   1.427   1.416   1.817   1.720   1.385   1.308   1.508   1.448   1.515   1.215   1.421   1.329   1.025   1.226   1.271   1.406   1.466   1.393   1.444   1.465   1.382   1.357   1.344
   261.92    1.932   1.698   1.705   1.677   2.068   1.996   1.697   1.425   1.792   1.467   1.258   1.248   1.459   1.148   1.149   1.288   1.209   1.455   1.352   1.406   1.764   1.676   1.427   1.372   1.419
   250.83    1.728   1.671   1.880   1.992   2.011   1.962   1.562   1.799   1.704   1.390   1.323   1.267   1.486   1.342   1.653   1.476   1.327   1.515   1.642   1.600   1.458   1.529   1.590   1.264   1.381
   239.75    1.619   1.559   1.700   1.693   1.462   1.707   1.669   1.680   1.347   1.556   1.415   1.552   1.374   1.566   1.721   1.786   1.434   1.843   1.453   1.415   1.482   1.418   1.562   1.411   1.583
   228.67    1.341   1.123   1.387   1.495   1.461   1.568   1.477   1.451   1.696   1.587   1.601   1.617   1.139   1.524   1.716   1.759   2.033   1.672   1.852   1.337   1.390   1.140   1.250   1.336   1.527
   217.58    1.143   1.237   1.302   1.329   1.481   1.455   1.065   1.466   1.847   1.809   1.707   1.506   1.372   1.484   1.637   1.697   1.948   1.778   1.778   1.556   1.419   1.049   1.106   1.318   1.339
   206.50    1.281   1.384   1.433   1.450   1.703   1.427   1.130   1.276   1.620   1.642   1.892   1.936   1.603   1.455   1.726   1.848   1.731   1.853   1.603   1.314   1.304   1.076   1.300   1.321   1.460
   195.42    1.491   1.362   1.443   1.267   1.396   1.539   1.387   1.630   1.517   1.805   1.779   1.858   1.822   1.388   1.669   1.685   1.888   1.696   1.530   1.181   1.137   1.203   1.197   1.229   1.286
   184.33    1.504   1.302   1.226   1.077   1.309   1.557   1.450   1.972   1.915   2.046   1.956   1.836   1.785   1.574   1.604   1.503   1.581   1.555   1.539   1.165   1.322   1.078   1.066   1.212   1.216
   173.25    1.478   1.403   1.357   1.032   1.483   1.486   1.791   2.107   2.014   1.641   1.860   1.961   1.763   1.956   1.776   1.418   1.506   1.616   1.352   1.121   1.198   1.151   1.019   1.209   1.367
   162.17    1.284   1.122   1.283   1.275   1.464   1.746   1.750   1.895   2.209   1.985   1.839   1.729   1.875   2.111   1.902   1.786   1.467   1.252   1.218   1.130   1.316   1.203   1.382   1.398   1.294
   151.08    1.384   1.295   1.095   1.259   1.477   1.735   1.775   1.660   2.034   2.348   2.101   2.009   1.935   1.936   2.014   1.818   1.646   1.193   1.046   1.195   1.157   1.150   1.249   1.334   1.514
   140.00    1.331   1.079   1.027   1.308   1.356   1.497   1.647   2.087   2.290   2.429   2.066   1.932   1.631   1.338   1.667   1.661   1.485   1.128   1.066   1.005   1.191   1.304   1.348   1.557   1.433
   128.92    1.247   1.057   1.071   1.384   1.725   1.562   1.701   1.789   2.038   2.208   2.290   1.829   1.421   1.481   1.443   1.527   1.017   1.310   1.152   1.118   1.299   1.417   1.516   1.439   1.460
   117.83    1.087   0.969   1.212   1.195   1.470   1.644   1.571   1.543   1.834   2.032   2.241   1.883   1.289   1.293   1.252   1.360   1.184   1.413   1.049   1.170   1.197   1.368   1.370   1.496   1.409
   106.75    1.329   1.152   1.236   1.299   1.194   1.361   1.541   1.707   1.677   1.744   1.864   1.648   1.428   1.378   1.172   1.285   1.205   1.194   1.102   1.364   1.423   1.260   1.225   1.336   1.581
    95.67    1.325   1.351   1.366   1.332   1.339   1.342   1.466   1.205   1.482   1.525   1.563   1.195   1.171   1.048   1.123   1.223   1.208   1.173   0.981   1.065   1.338   1.291   1.468   1.557   1.614
    84.58    1.277   1.319   1.351   1.305   1.075   1.298   1.271   1.256   1.466   1.353   1.181   1.293   1.187   1.225   1.417   1.290   0.845   1.095   1.173   1.191   1.435   1.410   1.321   1.592   1.768
    73.50    1.564   1.470   1.386   1.110   1.298   1.275   1.160   1.029   1.428   1.340   1.456   1.469   1.117   1.179   1.240   1.383   1.082   1.439   1.430   1.223   1.290   1.318   1.257   1.484   1.646
    62.42    1.386   1.322   1.424   1.340   1.472   1.281   1.472   1.432   1.568   1.674   1.634   1.426   1.345   1.009   1.273   1.238   1.101   1.440   1.711   1.326   1.364   1.417   1.060   1.209   1.338
    51.33    1.295   1.500   1.524   1.270   1.597   1.585   1.549   1.343   1.349   1.370   1.339   1.257   1.044   0.986   1.306   1.201   1.313   1.538   1.479   1.546   1.342   1.335   1.096   1.186   1.137
    40.25    1.424   1.161   1.426   1.618   1.468   1.529   1.462   1.523   1.368   1.354   1.499   1.251   1.071   1.024   1.350   1.635   1.509   1.875   1.485   1.262   1.495   1.206   1.221   1.145   1.153
    29.17    1.499   1.360   1.364   1.559   1.423   1.419   1.467   1.407   1.498   1.359   1.341   1.155   1.305   1.049   1.341   1.303   1.352   1.746   1.440   1.459   1.297   1.433   1.303   1.227   1.024
    18.08    1.536   1.439   1.541   1.865   1.537   1.623   1.212   1.258   1.504   1.774   1.325   1.307   1.394   1.331   1.379   1.332   1.573   1.563   1.605   1.434   1.220   1.212   1.223   1.449   1.123
     7.00    1.397   1.185   1.490   1.738   1.805   1.908   1.667   1.560   1.464   1.590   1.819   1.415   1.198   1.428   1.307   1.113   1.324   1.345   1.214   1.544   1.140   1.179   1.090   1.208   1.125

   Height   Standard deviation at grid points for the v component:
   273.00    1.270   1.270   1.270   1.270   1.270   1.270   1.270   1.270   1.270   1.270   1.270   1.270   1.270   1.270   1.270   1.270   1.270   1.270   1.270   1.270   1.270   1.270   1.270   1.270   1.270
   261.92    1.270   1.270   1.270   1.270   1.270   1.270   1.270   1.270   1.270   1.270   1.270   1.270   1.270   1.270   1.270   1.270   1.270   1.270   1.270   1.270   1.270   1.270   1.270   1.270   1.270
   250.83    1.270   1.270   1.270   1.270   1.270   1.270   1.270   1.270   1.270   1.270   1.270   1.270   1.270   1.270   1.270   1.270   1.270   1.270   1.270   1.270   1.270   1.270   1.270   1.270   1.270
   239.75    1.270   1.270   1.270   1.270   1.270   1.270   1.270   1.270   1.270   1.270   1.270   1.270   1.270   1.270   1.270   1.270   1.270   1.270   1.270   1.270   1.270   1.270   1.270   1.270   1.270
   228.67    1.270   1.270   1.270   1.270   1.270   1.270   1.270   1.270   1.270   1.270   1.270   1.270   1.270   1.270   1.270   1.270   1.270   1.270   1.270   1.270   1.270   1.270   1.270   1.270   1.270
   217.58    1.270   1.270   1.270   1.270   1.270   1.270   1.270   1.270   1.270   1.270   1.270   1.270   1.270   1.270   1.270   1.270   1.270   1.270   1.270   1.270   1.270   1.270   1.270   1.270   1.270
   206.50    1.270   1.270   1.270   1.270   1.270   1.270   1.270   1.270   1.270   1.270   1.270   1.270   1.270   1.270   1.270   1.270   1.270   1.270   1.270   1.270   1.270   1.270   1.270   1.270   1.270
   195.42    1.270   1.270   1.270   1.270   1.270   1.270   1.270   1.270   1.270   1.270   1.270   1.270   1.270   1.270   1.270   1.270   1.270   1.270   1.270   1.270   1.270   1.270   1.270   1.270   1.270
   184.33    1.270   1.270   1.270   1.270   1.270   1.270   1.270   1.270   1.270   1.270   1.270   1.270   1.270   1.270   1.270   1.270   1.270   1.270   1.270   1.270   1.270   1.270   1.270   1.270   1.270
   173.25    1.270   1.270   1.270   1.270   1.270   1.270   1.270   1.270   1.270   1.270   1.270   1.270   1.270   1.270   1.270   1.270   1.270   1.270   1.270   1.270   1.270   1.270   1.270   1.270   1.270
   162.17    1.270   1.270   1.270   1.270   1.270   1.270   1.270   1.270   1.270   1.270   1.270   1.270   1.270   1.270   1.270   1.270   1.270   1.270   1.270   1.270   1.270   1.270   1.270   1.270   1.270
   151.08    1.270   1.270   1.270   1.270   1.270   1.270   1.270   1.270   1.270   1.270   1.270   1.270   1.270   1.270   1.270   1.270   1.270   1.270   1.270   1.270   1.270   1.270   1.270   1.270   1.270
   140.00    1.270   1.270   1.270   1.270   1.270   1.270   1.270   1.270   1.270   1.270   1.270   1.270   1.270   1.270   1.270   1.270   1.270   1.270   1.270   1.270   1.270   1.270   1.270   1.270   1.270
   128.92    1.270   1.270   1.270   1.270   1.270   1.270   1.270   1.270   1.270   1.270   1.270   1.270   1.270   1.270   1.270   1.270   1.270   1.270   1.270   1.270   1.270   1.270   1.270   1.270   1.270
   117.83    1.270   1.270   1.270   1.270   1.270   1.270   1.270   1.270   1.270   1.270   1.270   1.270   1.270   1.270   1.270   1.270   1.270   1.270   1.270   1.270   1.270   1.270   1.270   1.270   1.270
   106.75    1.270   1.270   1.270   1.270   1.270   1.270   1.270   1.270   1.270   1.270   1.270   1.270   1.270   1.270   1.270   1.270   1.270   1.270   1.270   1.270   1.270   1.270   1.270   1.270   1.270
    95.67    1.270   1.270   1.270   1.270   1.270   1.270   1.270   1.270   1.270   1.270   1.270   1.270   1.270   1.270   1.270   1.270   1.270   1.270   1.270   1.270   1.270   1.270   1.270   1.270   1.270
    84.58    1.270   1.270   1.270   1.270   1.270   1.270   1.270   1.270   1.270   1.270   1.270   1.270   1.270   1.270   1.270   1.270   1.270   1.270   1.270   1.270   1.270   1.270   1.270   1.270   1.270
    73.50    1.270   1.270   1.270   1.270   1.270   1.270   1.270   1.270   1.270   1.270   1.270   1.270   1.270   1.270   1.270   1.270   1.270   1.270   1.270   1.270   1.270   1.270   1.270   1.270   1.270
    62.42    1.270   1.270   1.270   1.270   1.270   1.270   1.270   1.270   1.270   1.270   1.270   1.270   1.270   1.270   1.270   1.270   1.270   1.270   1.270   1.270   1.270   1.270   1.270   1.270   1.270
    51.33    1.270   1.270   1.270   1.270   1.270   1.270   1.270   1.270   1.270   1.270   1.270   1.270   1.270   1.270   1.270   1.270   1.270   1.270   1.270   1.270   1.270   1.270   1.270   1.270   1.270
    40.25    1.270   1.270   1.270   1.270   1.270   1.270   1.270   1.270   1.270   1.270   1.270   1.270   1.270   1.270   1.270   1.270   1.270   1.270   1.270   1.270   1.270   1.270   1.270   1.270   1.270
    29.17    1.270   1.270   1.270   1.270   1.270   1.270   1.270   1.270   1.270   1.270   1.270   1.270   1.270   1.270   1.270   1.270   1.270   1.270   1.270   1.270   1.270   1.270   1.270   1.270   1.270
    18.08    1.270   1.270   1.270   1.270   1.270   1.270   1.270   1.270   1.270   1.270   1.270   1.270   1.270   1.270   1.270   1.270   1.270   1.270   1.270   1.270   1.270   1.270   1.270   1.270   1.270
     7.00    1.270   1.270   1.270   1.270   1.270   1.270   1.270   1.270   1.270   1.270   1.270   1.270   1.270   1.270   1.270   1.270   1.270   1.270   1.270   1.270   1.270   1.270   1.270   1.270   1.270

   Height   Standard deviation at grid points for the w component:
   273.00    0.838   0.838   0.838   0.838   0.838   0.838   0.838   0.838   0.838   0.838   0.838   0.838   0.838   0.838   0.838   0.838   0.838   0.838   0.838   0.838   0.838   0.838   0.838   0.838   0.838
   261.92    0.838   0.838   0.838   0.838   0.838   0.838   0.838   0.838   0.838   0.838   0.838   0.838   0.838   0.838   0.838   0.838   0.838   0.838   0.838   0.838   0.838   0.838   0.838   0.838   0.838
   250.83    0.838   0.838   0.838   0.838   0.838   0.838   0.838   0.838   0.838   0.838   0.838   0.838   0.838   0.838   0.838   0.838   0.838   0.838   0.838   0.838   0.838   0.838   0.838   0.838   0.838
   239.75    0.838   0.838   0.838   0.838   0.838   0.838   0.838   0.838   0.838   0.838   0.838   0.838   0.838   0.838   0.838   0.838   0.838   0.838   0.838   0.838   0.838   0.838   0.838   0.838   0.838
   228.67    0.838   0.838   0.838   0.838   0.838   0.838   0.838   0.838   0.838   0.838   0.838   0.838   0.838   0.838   0.838   0.838   0.838   0.838   0.838   0.838   0.838   0.838   0.838   0.838   0.838
   217.58    0.838   0.838   0.838   0.838   0.838   0.838   0.838   0.838   0.838   0.838   0.838   0.838   0.838   0.838   0.838   0.838   0.838   0.838   0.838   0.838   0.838   0.838   0.838   0.838   0.838
   206.50    0.838   0.838   0.838   0.838   0.838   0.838   0.838   0.838   0.838   0.838   0.838   0.838   0.838   0.838   0.838   0.838   0.838   0.838   0.838   0.838   0.838   0.838   0.838   0.838   0.838
   195.42    0.838   0.838   0.838   0.838   0.838   0.838   0.838   0.838   0.838   0.838   0.838   0.838   0.838   0.838   0.838   0.838   0.838   0.838   0.838   0.838   0.838   0.838   0.838   0.838   0.838
   184.33    0.838   0.838   0.838   0.838   0.838   0.838   0.838   0.838   0.838   0.838   0.838   0.838   0.838   0.838   0.838   0.838   0.838   0.838   0.838   0.838   0.838   0.838   0.838   0.838   0.838
   173.25    0.838   0.838   0.838   0.838   0.838   0.838   0.838   0.838   0.838   0.838   0.838   0.838   0.838   0.838   0.838   0.838   0.838   0.838   0.838   0.838   0.838   0.838   0.838   0.838   0.838
   162.17    0.838   0.838   0.838   0.838   0.838   0.838   0.838   0.838   0.838   0.838   0.838   0.838   0.838   0.838   0.838   0.838   0.838   0.838   0.838   0.838   0.838   0.838   0.838   0.838   0.838
   151.08    0.838   0.838   0.838   0.838   0.838   0.838   0.838   0.838   0.838   0.838   0.838   0.838   0.838   0.838   0.838   0.838   0.838   0.838   0.838   0.838   0.838   0.838   0.838   0.838   0.838
   140.00    0.838   0.838   0.838   0.838   0.838   0.838   0.838   0.838   0.838   0.838   0.838   0.838   0.838   0.838   0.838   0.838   0.838   0.838   0.838   0.838   0.838   0.838   0.838   0.838   0.838
   128.92    0.838   0.838   0.838   0.838   0.838   0.838   0.838   0.838   0.838   0.838   0.838   0.838   0.838   0.838   0.838   0.838   0.838   0.838   0.838   0.838   0.838   0.838   0.838   0.838   0.838
   117.83    0.838   0.838   0.838   0.838   0.838   0.838   0.838   0.838   0.838   0.838   0.838   0.838   0.838   0.838   0.838   0.838   0.838   0.838   0.838   0.838   0.838   0.838   0.838   0.838   0.838
   106.75    0.838   0.838   0.838   0.838   0.838   0.838   0.838   0.838   0.838   0.838   0.838   0.838   0.838   0.838   0.838   0.838   0.838   0.838   0.838   0.838   0.838   0.838   0.838   0.838   0.838
    95.67    0.838   0.838   0.838   0.838   0.838   0.838   0.838   0.838   0.838   0.838   0.838   0.838   0.838   0.838   0.838   0.838   0.838   0.838   0.838   0.838   0.838   0.838   0.838   0.838   0.838
    84.58    0.838   0.838   0.838   0.838   0.838   0.838   0.838   0.838   0.838   0.838   0.838   0.838   0.838   0.838   0.838   0.838   0.838   0.838   0.838   0.838   0.838   0.838   0.838   0.838   0.838
    73.50    0.838   0.838   0.838   0.838   0.838   0.838   0.838   0.838   0.838   0.838   0.838   0.838   0.838   0.838   0.838   0.838   0.838   0.838   0.838   0.838   0.838   0.838   0.838   0.838   0.838
    62.42    0.838   0.838   0.838   0.838   0.838   0.838   0.838   0.838   0.838   0.838   0.838   0.838   0.838   0.838   0.838   0.838   0.838   0.838   0.838   0.838   0.838   0.838   0.838   0.838   0.838
    51.33    0.838   0.838   0.838   0.838   0.838   0.838   0.838   0.838   0.838   0.838   0.838   0.838   0.838   0.838   0.838   0.838   0.838   0.838   0.838   0.838   0.838   0.838   0.838   0.838   0.838
    40.25    0.838   0.838   0.838   0.838   0.838   0.838   0.838   0.838   0.838   0.838   0.838   0.838   0.838   0.838   0.838   0.838   0.838   0.838   0.838   0.838   0.838   0.838   0.838   0.838   0.838
    29.17    0.838   0.838   0.838   0.838   0.838   0.838   0.838   0.838   0.838   0.838   0.838   0.838   0.838   0.838   0.838   0.838   0.838   0.838   0.838   0.838   0.838   0.838   0.838   0.838   0.838
    18.08    0.838   0.838   0.838   0.838   0.838   0.838   0.838   0.838   0.838   0.838   0.838   0.838   0.838   0.838   0.838   0.838   0.838   0.838   0.838   0.838   0.838   0.838   0.838   0.838   0.838
     7.00    0.838   0.838   0.838   0.838   0.838   0.838   0.838   0.838   0.838   0.838   0.838   0.838   0.838   0.838   0.838   0.838   0.838   0.838   0.838   0.838   0.838   0.838   0.838   0.838   0.838

   Mean standard deviation across all grid points:
      u component:    1.450 m/s
      v component:    1.270 m/s
      w component:    0.838 m/s


U-component (X) statistics from the interpolated hub point:

   Mean =   7.0000 m/s
   TI   =  23.3006 %


Processing complete.  23.517 CPU seconds used.
