
This summary file was generated by TurbSim (v2.00.08a-bjj, 18-Jul-2017) on 24-Jul-2020 at 16:39:24.


Runtime Options:

        11  Random seed #1
    RANLUX  Type of random number generator
         F  Output binary HH turbulence parameters?
         F  Output formatted turbulence parameters?
         F  Output AeroDyn HH files?
         T  Output AeroDyn FF files?
         F  Output BLADED FF files?
         F  Output tower data?
         F  Output formatted FF files?
         F  Output coherent turbulence time step file?
         T  Clockwise rotation when looking downwind?
 0 -  NONE  IEC turbulence models scaled to exact specified standard deviation


Turbine/Model Specifications:

        25  Vertical grid-point matrix dimension
        25  Horizontal grid-point matrix dimension
     0.050  Time step [seconds]
   180.000  Analysis time [seconds]
   180.000  Usable output time [seconds]
   140.000  Hub height [m]
   266.000  Grid height [m]
   266.000  Grid width [m]
     0.000  Vertical flow angle [degrees]
     0.000  Horizontal flow angle [degrees]


Meteorological Boundary Conditions:

    IECKAI  IEC Kaimal spectral model
         1  IEC standard: IEC 61400-1 Ed. 3: 2005
         A  IEC turbulence characteristic
       NTM  IEC Normal Turbulence Model
       N/A  IEC Extreme Turbulence Model (ETM) "c" parameter [m/s]
       PL   Wind profile type
   140.000  Reference height [m]
    19.000  Reference wind speed [m/s]
       N/A  Jet height [m]
     0.200  Power law exponent
     0.030  Surface roughness length [m]


Non-IEC Meteorological Boundary Conditions:

       N/A  Site latitude [degrees]
       N/A  Gradient Richardson number
       N/A  Friction or shear velocity [m/s]
       N/A  Mixing layer depth [m]
       N/A  Mean hub u'w' Reynolds stress
       N/A  Mean hub u'v' Reynolds stress
       N/A  Mean hub v'w' Reynolds stress


Spatial Coherence Models:

   GENERAL  u-component coherence model
   GENERAL  v-component coherence model
   GENERAL  w-component coherence model
(   12.000, 0.353E-03)  u-component coherence parameters
(*********,  0.00    )  v-component coherence parameters
(*********,  0.00    )  w-component coherence parameters
     0.000  Coherence exponent


You have requested that the following file(s) be generated:

   /home/mertzb/Documents/Analysis/BAR10/temp/Testing/Testing_powercurve_NTM_U19.000000_Seed11.0.bts (AeroDyn/TurbSim full-field wind file)


Turbulence Simulation Scaling Parameter Summary:

   Turbulence model used                            =  IEC Kaimal
   Turbulence characteristic                        =  A
   IEC turbulence type                              =  Normal Turbulence Model
   IEC standard                                     =  IEC 61400-1 Ed. 3: 2005
   Mean wind speed at hub height                    =   19.000 m/s
   Expected value of turbulence intensity at 15 m/s =   16.000%
   Characteristic value of standard deviation       =    3.176 m/s
   Turbulence scale                                 =   42.000 m
   u-component integral scale                       =  340.200 m
   Coherency scale                                  =  340.200 m
   Characteristic value of hub turbulence intensity =   16.716%
   Gradient Richardson number                       =    0.000

   Wind profile type                                =  Power law
   Power law exponent                               =    0.200
   Mean shear across rotor disk                     =    0.042 (m/s)/m
   Assumed rotor diameter                           =  266.000 m
   Surface roughness length                         =    0.030 m

   Nyquist frequency of turbulent wind field        =   10.000 Hz

   Number of time steps in the FFT                  =     3600
   Number of time steps output                      =     3600
   Number of points simulated                       =      625


Mean Flow Angles:

   Vertical   =   0.0 degrees
   Horizontal =   0.0 degrees

Mean Wind Speed Profile:

   Height    Wind Speed   Horizontal Angle  Vertical Angle  U-comp (X)   V-comp (Y)   W-comp (Z)
     (m)        (m/s)         (degrees)       (degrees)       (m/s)        (m/s)        (m/s)   
   ------    ----------   ----------------  --------------  ----------   ----------   ----------
    273.0       21.72            0.00            0.00         21.72         0.00         0.00
    261.9       21.54            0.00            0.00         21.54         0.00         0.00
    250.8       21.35            0.00            0.00         21.35         0.00         0.00
    239.8       21.16            0.00            0.00         21.16         0.00         0.00
    228.7       20.96            0.00            0.00         20.96         0.00         0.00
    217.6       20.75            0.00            0.00         20.75         0.00         0.00
    206.5       20.54            0.00            0.00         20.54         0.00         0.00
    195.4       20.31            0.00            0.00         20.31         0.00         0.00
    184.3       20.07            0.00            0.00         20.07         0.00         0.00
    173.2       19.83            0.00            0.00         19.83         0.00         0.00
    162.2       19.57            0.00            0.00         19.57         0.00         0.00
    151.1       19.29            0.00            0.00         19.29         0.00         0.00
    140.0       19.00            0.00            0.00         19.00         0.00         0.00
    128.9       18.69            0.00            0.00         18.69         0.00         0.00
    117.8       18.36            0.00            0.00         18.36         0.00         0.00
    106.8       18.00            0.00            0.00         18.00         0.00         0.00
     95.7       17.61            0.00            0.00         17.61         0.00         0.00
     84.6       17.18            0.00            0.00         17.18         0.00         0.00
     73.5       16.70            0.00            0.00         16.70         0.00         0.00
     62.4       16.17            0.00            0.00         16.17         0.00         0.00
     51.3       15.55            0.00            0.00         15.55         0.00         0.00
     40.2       14.81            0.00            0.00         14.81         0.00         0.00
     29.2       13.88            0.00            0.00         13.88         0.00         0.00
     18.1       12.62            0.00            0.00         12.62         0.00         0.00
      7.0       10.44            0.00            0.00         10.44         0.00         0.00


Harvested Random Seeds after Generation of the Random Numbers:

     31359375 K 1
            0 K 2


Hub-Height Simulated Turbulence Statistical Summary:

   Type of Wind        Min (m/s)   Mean (m/s)    Max (m/s)  Sigma (m/s)       TI (%)
   ----------------    ---------   ----------    ---------  -----------       ------
   Longitudinal (u)         8.83        19.00        28.33        3.449       18.153
   Lateral (v)             -7.11         0.00         7.62        2.434       12.809
   Vertical (w)            -4.59        -0.00         6.11        1.534        8.076
   U component              8.83        19.00        28.33        3.449       18.153
   V component             -7.11         0.00         7.62        2.434       12.809
   W component             -4.59        -0.00         6.11        1.534        8.076
   Horizontal (U&V)         9.25        19.16        28.36        3.414       17.815
   Total                    9.36        19.23        28.68        3.398       17.676

                       Min Reynolds     Mean Reynolds    Max Reynolds    Correlation
   Product             Stress (m/s)^2   Stress (m/s)^2   Stress (m/s)^2  Coefficient
   ----------------    --------------   --------------   --------------  -----------
   u'w'                    -39.935            -0.567            17.801        -0.107
   u'v'                    -50.225             0.650            40.858         0.077
   v'w'                    -22.765            -0.029            23.302        -0.008


   Friction Velocity (Ustar)  =      0.753 m/s
   Maximum Instantaneous TKE  =     61.680 (m/s)^2
   Maximum Instantaneous CTKE =     27.515 (m/s)^2


Grid Point Variance Summary:

   Y-coord -133.00 -121.92 -110.83  -99.75  -88.67  -77.58  -66.50  -55.42  -44.33  -33.25  -22.17  -11.08    0.00   11.08   22.17   33.25   44.33   55.42   66.50   77.58   88.67   99.75  110.83  121.92  133.00

   Height   Standard deviation at grid points for the u component:
   273.00    3.393   3.440   3.124   3.020   3.413   3.271   2.817   2.774   3.217   2.888   2.965   2.654   2.965   2.786   2.499   2.816   2.913   3.079   3.234   3.149   3.233   3.104   3.084   3.138   3.181
   261.92    3.646   3.402   3.352   3.315   3.668   3.666   3.373   3.006   3.598   3.095   2.724   2.648   2.876   2.687   2.651   2.840   2.983   3.148   3.092   3.126   3.476   3.331   3.114   3.019   3.265
   250.83    3.558   3.295   3.452   3.590   3.483   3.495   3.127   3.344   3.329   3.038   2.840   2.726   2.866   2.880   3.270   3.070   2.882   3.169   3.310   3.267   2.827   3.047   3.075   2.790   3.009
   239.75    3.247   3.106   3.316   3.138   2.834   3.121   3.187   3.204   2.804   3.191   3.005   3.145   2.815   3.164   3.422   3.498   3.145   3.659   3.103   2.934   3.006   2.740   2.839   2.746   3.090
   228.67    2.957   2.641   2.945   3.074   2.951   3.169   3.085   2.862   3.255   3.272   3.360   3.356   2.718   3.112   3.347   3.448   3.762   3.344   3.613   2.889   2.829   2.383   2.501   2.481   2.923
   217.58    2.825   2.922   2.929   2.959   3.034   3.075   2.523   2.910   3.354   3.415   3.408   3.243   3.056   2.991   3.159   3.377   3.524   3.364   3.435   3.146   2.741   2.332   2.267   2.628   2.605
   206.50    3.088   3.119   3.169   2.946   3.181   2.818   2.529   2.771   3.081   3.104   3.595   3.748   3.406   3.075   3.376   3.538   3.275   3.404   3.266   2.837   2.816   2.426   2.755   2.526   2.970
   195.42    3.239   2.987   2.965   2.675   2.714   3.021   2.860   3.268   3.014   3.307   3.307   3.507   3.483   2.886   3.280   3.311   3.598   3.282   3.162   2.612   2.553   2.766   2.684   2.651   2.715
   184.33    3.139   2.825   2.495   2.530   2.614   3.047   3.003   3.729   3.550   3.627   3.593   3.444   3.300   3.129   3.174   3.035   3.146   3.176   3.152   2.686   2.885   2.567   2.535   2.790   2.683
   173.25    2.999   2.786   2.818   2.426   2.906   2.912   3.463   3.907   3.786   3.510   3.579   3.555   3.377   3.582   3.208   3.080   3.035   3.197   3.026   2.786   2.817   2.873   2.602   2.799   2.984
   162.17    2.731   2.455   2.725   2.632   2.971   3.413   3.482   3.744   4.174   3.952   3.723   3.553   3.598   3.768   3.487   3.485   3.155   2.743   2.912   2.745   3.042   2.862   3.251   3.203   2.809
   151.08    2.598   2.570   2.403   2.722   3.046   3.307   3.482   3.425   3.893   4.377   4.103   3.900   3.720   3.613   3.617   3.454   3.198   2.953   2.753   2.832   2.940   2.885   3.134   3.105   3.192
   140.00    2.666   2.169   2.207   2.816   2.905   2.953   3.264   3.873   4.232   4.424   4.143   3.888   3.449   3.004   3.198   3.148   3.107   2.743   2.723   2.579   2.963   3.075   3.048   3.367   3.224
   128.92    2.417   2.271   2.350   2.866   3.298   3.214   3.300   3.562   3.975   4.107   4.282   3.745   3.227   3.123   2.966   2.977   2.511   2.879   2.780   2.844   2.969   3.134   3.149   3.132   3.238
   117.83    2.404   2.341   2.596   2.717   2.947   3.313   3.321   3.161   3.621   3.916   4.193   3.820   3.089   3.036   2.722   2.750   2.660   3.008   2.725   2.819   2.775   3.154   2.996   3.183   3.051
   106.75    2.861   2.798   2.645   2.863   2.845   2.866   3.186   3.294   3.284   3.527   3.607   3.473   3.177   3.100   2.627   2.721   2.689   2.726   2.727   3.030   3.085   3.084   2.750   2.819   2.981
    95.67    2.961   2.800   3.103   2.826   2.921   2.951   2.996   2.813   2.994   2.945   3.130   2.846   2.761   2.597   2.729   2.868   2.870   2.784   2.486   2.676   3.159   2.964   3.107   3.094   2.964
    84.58    2.812   3.003   3.017   2.879   2.686   2.798   2.581   2.764   2.875   2.821   2.599   2.777   2.818   2.725   3.131   3.097   2.373   2.538   2.607   2.713   3.052   3.170   3.026   3.185   3.150
    73.50    3.232   3.100   3.050   2.732   3.027   3.085   2.855   2.551   2.877   2.886   2.953   3.143   2.708   2.677   2.893   3.007   2.742   3.015   3.058   2.835   2.950   3.152   2.909   3.125   3.259
    62.42    3.142   2.996   3.039   3.072   3.324   3.048   3.228   3.087   3.173   3.366   3.217   2.917   2.918   2.441   2.810   2.760   2.654   3.067   3.388   3.200   3.249   3.149   2.802   2.673   2.959
    51.33    3.026   3.259   3.181   2.841   3.364   3.341   3.280   2.893   3.100   3.056   2.896   2.818   2.319   2.247   2.836   2.850   2.812   2.977   3.049   3.263   3.115   3.042   2.714   2.716   2.679
    40.25    3.146   2.882   3.054   3.289   3.093   3.378   3.297   3.233   3.084   2.982   3.230   2.821   2.525   2.499   2.897   3.180   3.063   3.577   3.109   2.920   3.356   2.915   2.721   2.703   2.594
    29.17    3.139   2.828   2.766   3.144   3.265   3.119   3.215   3.207   3.045   2.974   2.810   2.804   2.842   2.453   2.971   2.798   2.871   3.360   2.997   3.065   2.853   3.104   2.863   2.648   2.462
    18.08    3.075   2.853   3.031   3.422   3.438   3.585   3.127   3.115   3.224   3.437   3.010   2.847   2.705   2.793   2.885   2.970   3.253   3.047   3.015   3.029   2.698   2.659   2.501   2.736   2.497
     7.00    2.881   2.531   2.891   3.287   3.500   3.802   3.745   3.531   3.322   3.374   3.555   2.955   2.483   2.805   2.733   2.527   2.730   2.664   2.521   2.917   2.553   2.563   2.289   2.545   2.491

   Height   Standard deviation at grid points for the v component:
   273.00    2.434   2.434   2.434   2.434   2.434   2.434   2.434   2.434   2.434   2.434   2.434   2.434   2.434   2.434   2.434   2.434   2.434   2.434   2.434   2.434   2.434   2.434   2.434   2.434   2.434
   261.92    2.434   2.434   2.434   2.434   2.434   2.434   2.434   2.434   2.434   2.434   2.434   2.434   2.434   2.434   2.434   2.434   2.434   2.434   2.434   2.434   2.434   2.434   2.434   2.434   2.434
   250.83    2.434   2.434   2.434   2.434   2.434   2.434   2.434   2.434   2.434   2.434   2.434   2.434   2.434   2.434   2.434   2.434   2.434   2.434   2.434   2.434   2.434   2.434   2.434   2.434   2.434
   239.75    2.434   2.434   2.434   2.434   2.434   2.434   2.434   2.434   2.434   2.434   2.434   2.434   2.434   2.434   2.434   2.434   2.434   2.434   2.434   2.434   2.434   2.434   2.434   2.434   2.434
   228.67    2.434   2.434   2.434   2.434   2.434   2.434   2.434   2.434   2.434   2.434   2.434   2.434   2.434   2.434   2.434   2.434   2.434   2.434   2.434   2.434   2.434   2.434   2.434   2.434   2.434
   217.58    2.434   2.434   2.434   2.434   2.434   2.434   2.434   2.434   2.434   2.434   2.434   2.434   2.434   2.434   2.434   2.434   2.434   2.434   2.434   2.434   2.434   2.434   2.434   2.434   2.434
   206.50    2.434   2.434   2.434   2.434   2.434   2.434   2.434   2.434   2.434   2.434   2.434   2.434   2.434   2.434   2.434   2.434   2.434   2.434   2.434   2.434   2.434   2.434   2.434   2.434   2.434
   195.42    2.434   2.434   2.434   2.434   2.434   2.434   2.434   2.434   2.434   2.434   2.434   2.434   2.434   2.434   2.434   2.434   2.434   2.434   2.434   2.434   2.434   2.434   2.434   2.434   2.434
   184.33    2.434   2.434   2.434   2.434   2.434   2.434   2.434   2.434   2.434   2.434   2.434   2.434   2.434   2.434   2.434   2.434   2.434   2.434   2.434   2.434   2.434   2.434   2.434   2.434   2.434
   173.25    2.434   2.434   2.434   2.434   2.434   2.434   2.434   2.434   2.434   2.434   2.434   2.434   2.434   2.434   2.434   2.434   2.434   2.434   2.434   2.434   2.434   2.434   2.434   2.434   2.434
   162.17    2.434   2.434   2.434   2.434   2.434   2.434   2.434   2.434   2.434   2.434   2.434   2.434   2.434   2.434   2.434   2.434   2.434   2.434   2.434   2.434   2.434   2.434   2.434   2.434   2.434
   151.08    2.434   2.434   2.434   2.434   2.434   2.434   2.434   2.434   2.434   2.434   2.434   2.434   2.434   2.434   2.434   2.434   2.434   2.434   2.434   2.434   2.434   2.434   2.434   2.434   2.434
   140.00    2.434   2.434   2.434   2.434   2.434   2.434   2.434   2.434   2.434   2.434   2.434   2.434   2.434   2.434   2.434   2.434   2.434   2.434   2.434   2.434   2.434   2.434   2.434   2.434   2.434
   128.92    2.434   2.434   2.434   2.434   2.434   2.434   2.434   2.434   2.434   2.434   2.434   2.434   2.434   2.434   2.434   2.434   2.434   2.434   2.434   2.434   2.434   2.434   2.434   2.434   2.434
   117.83    2.434   2.434   2.434   2.434   2.434   2.434   2.434   2.434   2.434   2.434   2.434   2.434   2.434   2.434   2.434   2.434   2.434   2.434   2.434   2.434   2.434   2.434   2.434   2.434   2.434
   106.75    2.434   2.434   2.434   2.434   2.434   2.434   2.434   2.434   2.434   2.434   2.434   2.434   2.434   2.434   2.434   2.434   2.434   2.434   2.434   2.434   2.434   2.434   2.434   2.434   2.434
    95.67    2.434   2.434   2.434   2.434   2.434   2.434   2.434   2.434   2.434   2.434   2.434   2.434   2.434   2.434   2.434   2.434   2.434   2.434   2.434   2.434   2.434   2.434   2.434   2.434   2.434
    84.58    2.434   2.434   2.434   2.434   2.434   2.434   2.434   2.434   2.434   2.434   2.434   2.434   2.434   2.434   2.434   2.434   2.434   2.434   2.434   2.434   2.434   2.434   2.434   2.434   2.434
    73.50    2.434   2.434   2.434   2.434   2.434   2.434   2.434   2.434   2.434   2.434   2.434   2.434   2.434   2.434   2.434   2.434   2.434   2.434   2.434   2.434   2.434   2.434   2.434   2.434   2.434
    62.42    2.434   2.434   2.434   2.434   2.434   2.434   2.434   2.434   2.434   2.434   2.434   2.434   2.434   2.434   2.434   2.434   2.434   2.434   2.434   2.434   2.434   2.434   2.434   2.434   2.434
    51.33    2.434   2.434   2.434   2.434   2.434   2.434   2.434   2.434   2.434   2.434   2.434   2.434   2.434   2.434   2.434   2.434   2.434   2.434   2.434   2.434   2.434   2.434   2.434   2.434   2.434
    40.25    2.434   2.434   2.434   2.434   2.434   2.434   2.434   2.434   2.434   2.434   2.434   2.434   2.434   2.434   2.434   2.434   2.434   2.434   2.434   2.434   2.434   2.434   2.434   2.434   2.434
    29.17    2.434   2.434   2.434   2.434   2.434   2.434   2.434   2.434   2.434   2.434   2.434   2.434   2.434   2.434   2.434   2.434   2.434   2.434   2.434   2.434   2.434   2.434   2.434   2.434   2.434
    18.08    2.434   2.434   2.434   2.434   2.434   2.434   2.434   2.434   2.434   2.434   2.434   2.434   2.434   2.434   2.434   2.434   2.434   2.434   2.434   2.434   2.434   2.434   2.434   2.434   2.434
     7.00    2.434   2.434   2.434   2.434   2.434   2.434   2.434   2.434   2.434   2.434   2.434   2.434   2.434   2.434   2.434   2.434   2.434   2.434   2.434   2.434   2.434   2.434   2.434   2.434   2.434

   Height   Standard deviation at grid points for the w component:
   273.00    1.534   1.534   1.534   1.534   1.534   1.534   1.534   1.534   1.534   1.534   1.534   1.534   1.534   1.534   1.534   1.534   1.534   1.534   1.534   1.534   1.534   1.534   1.534   1.534   1.534
   261.92    1.534   1.534   1.534   1.534   1.534   1.534   1.534   1.534   1.534   1.534   1.534   1.534   1.534   1.534   1.534   1.534   1.534   1.534   1.534   1.534   1.534   1.534   1.534   1.534   1.534
   250.83    1.534   1.534   1.534   1.534   1.534   1.534   1.534   1.534   1.534   1.534   1.534   1.534   1.534   1.534   1.534   1.534   1.534   1.534   1.534   1.534   1.534   1.534   1.534   1.534   1.534
   239.75    1.534   1.534   1.534   1.534   1.534   1.534   1.534   1.534   1.534   1.534   1.534   1.534   1.534   1.534   1.534   1.534   1.534   1.534   1.534   1.534   1.534   1.534   1.534   1.534   1.534
   228.67    1.534   1.534   1.534   1.534   1.534   1.534   1.534   1.534   1.534   1.534   1.534   1.534   1.534   1.534   1.534   1.534   1.534   1.534   1.534   1.534   1.534   1.534   1.534   1.534   1.534
   217.58    1.534   1.534   1.534   1.534   1.534   1.534   1.534   1.534   1.534   1.534   1.534   1.534   1.534   1.534   1.534   1.534   1.534   1.534   1.534   1.534   1.534   1.534   1.534   1.534   1.534
   206.50    1.534   1.534   1.534   1.534   1.534   1.534   1.534   1.534   1.534   1.534   1.534   1.534   1.534   1.534   1.534   1.534   1.534   1.534   1.534   1.534   1.534   1.534   1.534   1.534   1.534
   195.42    1.534   1.534   1.534   1.534   1.534   1.534   1.534   1.534   1.534   1.534   1.534   1.534   1.534   1.534   1.534   1.534   1.534   1.534   1.534   1.534   1.534   1.534   1.534   1.534   1.534
   184.33    1.534   1.534   1.534   1.534   1.534   1.534   1.534   1.534   1.534   1.534   1.534   1.534   1.534   1.534   1.534   1.534   1.534   1.534   1.534   1.534   1.534   1.534   1.534   1.534   1.534
   173.25    1.534   1.534   1.534   1.534   1.534   1.534   1.534   1.534   1.534   1.534   1.534   1.534   1.534   1.534   1.534   1.534   1.534   1.534   1.534   1.534   1.534   1.534   1.534   1.534   1.534
   162.17    1.534   1.534   1.534   1.534   1.534   1.534   1.534   1.534   1.534   1.534   1.534   1.534   1.534   1.534   1.534   1.534   1.534   1.534   1.534   1.534   1.534   1.534   1.534   1.534   1.534
   151.08    1.534   1.534   1.534   1.534   1.534   1.534   1.534   1.534   1.534   1.534   1.534   1.534   1.534   1.534   1.534   1.534   1.534   1.534   1.534   1.534   1.534   1.534   1.534   1.534   1.534
   140.00    1.534   1.534   1.534   1.534   1.534   1.534   1.534   1.534   1.534   1.534   1.534   1.534   1.534   1.534   1.534   1.534   1.534   1.534   1.534   1.534   1.534   1.534   1.534   1.534   1.534
   128.92    1.534   1.534   1.534   1.534   1.534   1.534   1.534   1.534   1.534   1.534   1.534   1.534   1.534   1.534   1.534   1.534   1.534   1.534   1.534   1.534   1.534   1.534   1.534   1.534   1.534
   117.83    1.534   1.534   1.534   1.534   1.534   1.534   1.534   1.534   1.534   1.534   1.534   1.534   1.534   1.534   1.534   1.534   1.534   1.534   1.534   1.534   1.534   1.534   1.534   1.534   1.534
   106.75    1.534   1.534   1.534   1.534   1.534   1.534   1.534   1.534   1.534   1.534   1.534   1.534   1.534   1.534   1.534   1.534   1.534   1.534   1.534   1.534   1.534   1.534   1.534   1.534   1.534
    95.67    1.534   1.534   1.534   1.534   1.534   1.534   1.534   1.534   1.534   1.534   1.534   1.534   1.534   1.534   1.534   1.534   1.534   1.534   1.534   1.534   1.534   1.534   1.534   1.534   1.534
    84.58    1.534   1.534   1.534   1.534   1.534   1.534   1.534   1.534   1.534   1.534   1.534   1.534   1.534   1.534   1.534   1.534   1.534   1.534   1.534   1.534   1.534   1.534   1.534   1.534   1.534
    73.50    1.534   1.534   1.534   1.534   1.534   1.534   1.534   1.534   1.534   1.534   1.534   1.534   1.534   1.534   1.534   1.534   1.534   1.534   1.534   1.534   1.534   1.534   1.534   1.534   1.534
    62.42    1.534   1.534   1.534   1.534   1.534   1.534   1.534   1.534   1.534   1.534   1.534   1.534   1.534   1.534   1.534   1.534   1.534   1.534   1.534   1.534   1.534   1.534   1.534   1.534   1.534
    51.33    1.534   1.534   1.534   1.534   1.534   1.534   1.534   1.534   1.534   1.534   1.534   1.534   1.534   1.534   1.534   1.534   1.534   1.534   1.534   1.534   1.534   1.534   1.534   1.534   1.534
    40.25    1.534   1.534   1.534   1.534   1.534   1.534   1.534   1.534   1.534   1.534   1.534   1.534   1.534   1.534   1.534   1.534   1.534   1.534   1.534   1.534   1.534   1.534   1.534   1.534   1.534
    29.17    1.534   1.534   1.534   1.534   1.534   1.534   1.534   1.534   1.534   1.534   1.534   1.534   1.534   1.534   1.534   1.534   1.534   1.534   1.534   1.534   1.534   1.534   1.534   1.534   1.534
    18.08    1.534   1.534   1.534   1.534   1.534   1.534   1.534   1.534   1.534   1.534   1.534   1.534   1.534   1.534   1.534   1.534   1.534   1.534   1.534   1.534   1.534   1.534   1.534   1.534   1.534
     7.00    1.534   1.534   1.534   1.534   1.534   1.534   1.534   1.534   1.534   1.534   1.534   1.534   1.534   1.534   1.534   1.534   1.534   1.534   1.534   1.534   1.534   1.534   1.534   1.534   1.534

   Mean standard deviation across all grid points:
      u component:    3.046 m/s
      v component:    2.434 m/s
      w component:    1.534 m/s


U-component (X) statistics from the interpolated hub point:

   Mean =  19.0000 m/s
   TI   =  18.1530 %


Processing complete.  49.814 CPU seconds used.
