
This summary file was generated by TurbSim (v2.00.08a-bjj, 18-Jul-2017) on 24-Jul-2020 at 16:45:53.


Runtime Options:

        12  Random seed #1
    RANLUX  Type of random number generator
         F  Output binary HH turbulence parameters?
         F  Output formatted turbulence parameters?
         F  Output AeroDyn HH files?
         T  Output AeroDyn FF files?
         F  Output BLADED FF files?
         F  Output tower data?
         F  Output formatted FF files?
         F  Output coherent turbulence time step file?
         T  Clockwise rotation when looking downwind?
 0 -  NONE  IEC turbulence models scaled to exact specified standard deviation


Turbine/Model Specifications:

        25  Vertical grid-point matrix dimension
        25  Horizontal grid-point matrix dimension
     0.050  Time step [seconds]
   180.000  Analysis time [seconds]
   180.000  Usable output time [seconds]
   140.000  Hub height [m]
   266.000  Grid height [m]
   266.000  Grid width [m]
     0.000  Vertical flow angle [degrees]
     0.000  Horizontal flow angle [degrees]


Meteorological Boundary Conditions:

    IECKAI  IEC Kaimal spectral model
         1  IEC standard: IEC 61400-1 Ed. 3: 2005
         A  IEC turbulence characteristic
       NTM  IEC Normal Turbulence Model
       N/A  IEC Extreme Turbulence Model (ETM) "c" parameter [m/s]
       PL   Wind profile type
   140.000  Reference height [m]
    25.000  Reference wind speed [m/s]
       N/A  Jet height [m]
     0.200  Power law exponent
     0.030  Surface roughness length [m]


Non-IEC Meteorological Boundary Conditions:

       N/A  Site latitude [degrees]
       N/A  Gradient Richardson number
       N/A  Friction or shear velocity [m/s]
       N/A  Mixing layer depth [m]
       N/A  Mean hub u'w' Reynolds stress
       N/A  Mean hub u'v' Reynolds stress
       N/A  Mean hub v'w' Reynolds stress


Spatial Coherence Models:

   GENERAL  u-component coherence model
   GENERAL  v-component coherence model
   GENERAL  w-component coherence model
(   12.000, 0.353E-03)  u-component coherence parameters
(*********,  0.00    )  v-component coherence parameters
(*********,  0.00    )  w-component coherence parameters
     0.000  Coherence exponent


You have requested that the following file(s) be generated:

   /home/mertzb/Documents/Analysis/BAR10/temp/Testing/Testing_powercurve_NTM_U25.000000_Seed12.0.bts (AeroDyn/TurbSim full-field wind file)


Turbulence Simulation Scaling Parameter Summary:

   Turbulence model used                            =  IEC Kaimal
   Turbulence characteristic                        =  A
   IEC turbulence type                              =  Normal Turbulence Model
   IEC standard                                     =  IEC 61400-1 Ed. 3: 2005
   Mean wind speed at hub height                    =   25.000 m/s
   Expected value of turbulence intensity at 15 m/s =   16.000%
   Characteristic value of standard deviation       =    3.896 m/s
   Turbulence scale                                 =   42.000 m
   u-component integral scale                       =  340.200 m
   Coherency scale                                  =  340.200 m
   Characteristic value of hub turbulence intensity =   15.584%
   Gradient Richardson number                       =    0.000

   Wind profile type                                =  Power law
   Power law exponent                               =    0.200
   Mean shear across rotor disk                     =    0.056 (m/s)/m
   Assumed rotor diameter                           =  266.000 m
   Surface roughness length                         =    0.030 m

   Nyquist frequency of turbulent wind field        =   10.000 Hz

   Number of time steps in the FFT                  =     3600
   Number of time steps output                      =     3600
   Number of points simulated                       =      625


Mean Flow Angles:

   Vertical   =   0.0 degrees
   Horizontal =   0.0 degrees

Mean Wind Speed Profile:

   Height    Wind Speed   Horizontal Angle  Vertical Angle  U-comp (X)   V-comp (Y)   W-comp (Z)
     (m)        (m/s)         (degrees)       (degrees)       (m/s)        (m/s)        (m/s)   
   ------    ----------   ----------------  --------------  ----------   ----------   ----------
    273.0       28.57            0.00            0.00         28.57         0.00         0.00
    261.9       28.34            0.00            0.00         28.34         0.00         0.00
    250.8       28.09            0.00            0.00         28.09         0.00         0.00
    239.8       27.84            0.00            0.00         27.84         0.00         0.00
    228.7       27.58            0.00            0.00         27.58         0.00         0.00
    217.6       27.30            0.00            0.00         27.30         0.00         0.00
    206.5       27.02            0.00            0.00         27.02         0.00         0.00
    195.4       26.72            0.00            0.00         26.72         0.00         0.00
    184.3       26.41            0.00            0.00         26.41         0.00         0.00
    173.2       26.09            0.00            0.00         26.09         0.00         0.00
    162.2       25.75            0.00            0.00         25.75         0.00         0.00
    151.1       25.38            0.00            0.00         25.38         0.00         0.00
    140.0       25.00            0.00            0.00         25.00         0.00         0.00
    128.9       24.59            0.00            0.00         24.59         0.00         0.00
    117.8       24.15            0.00            0.00         24.15         0.00         0.00
    106.8       23.68            0.00            0.00         23.68         0.00         0.00
     95.7       23.17            0.00            0.00         23.17         0.00         0.00
     84.6       22.60            0.00            0.00         22.60         0.00         0.00
     73.5       21.98            0.00            0.00         21.98         0.00         0.00
     62.4       21.27            0.00            0.00         21.27         0.00         0.00
     51.3       20.45            0.00            0.00         20.45         0.00         0.00
     40.2       19.48            0.00            0.00         19.48         0.00         0.00
     29.2       18.27            0.00            0.00         18.27         0.00         0.00
     18.1       16.60            0.00            0.00         16.60         0.00         0.00
      7.0       13.73            0.00            0.00         13.73         0.00         0.00


Harvested Random Seeds after Generation of the Random Numbers:

     31359375 K 1
            0 K 2


Hub-Height Simulated Turbulence Statistical Summary:

   Type of Wind        Min (m/s)   Mean (m/s)    Max (m/s)  Sigma (m/s)       TI (%)
   ----------------    ---------   ----------    ---------  -----------       ------
   Longitudinal (u)        15.79        25.00        35.07        3.459       13.835
   Lateral (v)            -10.65         0.00        10.49        3.002       12.010
   Vertical (w)            -5.90        -0.00         6.20        1.876        7.504
   U component             15.79        25.00        35.07        3.459       13.835
   V component            -10.65         0.00        10.49        3.002       12.010
   W component             -5.90        -0.00         6.20        1.876        7.504
   Horizontal (U&V)        15.80        25.18        35.14        3.420       13.581
   Total                   15.83        25.26        35.21        3.413       13.512

                       Min Reynolds     Mean Reynolds    Max Reynolds    Correlation
   Product             Stress (m/s)^2   Stress (m/s)^2   Stress (m/s)^2  Coefficient
   ----------------    --------------   --------------   --------------  -----------
   u'w'                    -35.082            -0.580            36.933        -0.089
   u'v'                    -65.072            -1.069            48.933        -0.103
   v'w'                    -34.668             0.082            28.329         0.015


   Friction Velocity (Ustar)  =      0.762 m/s
   Maximum Instantaneous TKE  =     71.610 (m/s)^2
   Maximum Instantaneous CTKE =     32.537 (m/s)^2


Grid Point Variance Summary:

   Y-coord -133.00 -121.92 -110.83  -99.75  -88.67  -77.58  -66.50  -55.42  -44.33  -33.25  -22.17  -11.08    0.00   11.08   22.17   33.25   44.33   55.42   66.50   77.58   88.67   99.75  110.83  121.92  133.00

   Height   Standard deviation at grid points for the u component:
   273.00    2.737   3.165   3.170   3.631   3.846   3.983   3.782   3.606   3.815   3.524   3.228   3.254   3.047   3.136   3.445   3.424   3.305   3.576   3.571   3.258   3.127   3.212   3.301   3.310   3.416
   261.92    2.731   2.953   3.346   3.774   3.712   3.814   3.746   3.715   3.616   3.388   3.326   3.249   3.315   3.354   3.494   3.630   3.762   3.502   3.895   3.334   3.213   3.506   3.645   3.505   3.758
   250.83    3.569   3.178   3.525   3.848   3.797   3.661   3.821   3.172   3.150   3.410   3.523   3.138   3.356   3.557   3.673   4.022   3.913   3.581   3.570   3.573   3.372   3.779   3.238   3.438   3.750
   239.75    4.120   3.536   3.290   3.771   3.553   3.504   3.516   3.515   3.380   3.628   3.699   3.180   3.381   3.927   3.494   3.580   3.900   4.050   3.814   3.780   3.705   3.541   3.402   3.513   3.822
   228.67    3.930   3.605   3.173   3.557   3.355   3.495   3.595   3.517   3.633   3.831   3.905   3.615   3.829   3.941   3.817   3.817   3.809   3.877   3.931   3.995   3.512   3.877   3.598   3.574   3.810
   217.58    3.677   3.652   3.609   3.477   3.473   3.586   3.764   3.520   3.446   3.463   3.629   3.759   4.211   4.058   4.261   3.556   3.690   3.847   3.605   3.550   3.268   3.704   3.408   3.617   3.861
   206.50    3.402   3.502   3.552   3.431   3.495   3.559   3.562   3.778   3.825   3.798   3.698   4.142   4.232   4.023   3.751   3.559   3.569   3.918   3.702   3.484   3.301   3.353   3.717   3.505   3.924
   195.42    3.618   3.541   3.561   3.691   3.743   3.391   3.126   3.549   3.610   3.910   3.924   4.271   4.032   3.961   4.044   3.880   3.419   3.594   3.793   3.388   3.365   3.000   3.372   3.480   3.580
   184.33    3.384   3.645   3.748   3.592   3.749   3.435   3.226   3.552   3.311   3.734   3.775   3.791   3.896   3.825   3.938   3.471   3.261   3.502   3.538   3.274   2.912   2.890   2.903   3.163   3.536
   173.25    3.956   3.926   3.623   3.534   3.631   3.496   3.694   3.901   3.757   3.612   3.756   3.464   3.578   3.574   3.469   3.441   3.410   3.296   3.147   3.235   2.670   2.773   2.865   3.158   3.170
   162.17    4.212   3.896   3.768   3.725   3.693   3.668   3.929   3.691   3.774   3.543   3.373   3.151   3.184   3.358   3.605   3.345   3.584   3.128   3.142   3.130   3.081   2.945   3.027   3.003   3.299
   151.08    4.238   4.098   3.972   3.646   3.859   4.059   3.982   4.033   3.534   3.474   3.185   3.016   3.315   3.214   3.457   3.405   3.286   3.087   3.144   3.687   3.413   3.233   3.275   3.221   3.105
   140.00    4.244   4.018   4.061   3.993   3.544   3.823   4.018   3.953   3.701   3.739   3.421   3.576   3.459   3.296   3.253   3.578   3.798   3.585   3.468   3.749   3.347   3.393   3.323   3.027   2.829
   128.92    4.236   4.254   4.491   4.124   3.579   3.900   3.944   3.925   4.161   4.110   3.892   3.593   3.315   3.225   3.123   3.498   3.652   3.836   3.669   3.678   3.827   3.597   3.565   3.564   3.414
   117.83    4.232   4.389   4.514   3.958   3.704   3.562   3.400   3.540   3.971   3.999   3.606   3.221   3.245   3.448   3.772   3.681   3.475   3.741   3.630   3.639   3.595   3.422   3.463   3.677   3.838
   106.75    4.619   4.362   4.137   4.093   4.217   3.980   3.659   3.550   3.757   3.984   3.746   3.237   3.362   3.691   4.006   4.032   3.861   4.361   4.078   4.112   3.601   2.971   3.784   3.867   4.171
    95.67    4.127   4.205   4.338   3.978   4.234   3.950   3.741   3.886   3.936   3.950   3.559   3.505   3.431   3.977   4.070   4.072   4.022   4.218   4.094   3.868   3.579   3.426   3.555   4.093   4.224
    84.58    4.599   4.176   3.620   3.876   4.093   4.031   4.148   3.977   3.665   3.654   3.681   3.428   3.523   4.185   5.031   4.712   4.248   4.110   3.912   3.797   3.475   3.527   3.646   3.927   4.130
    73.50    4.591   3.923   3.819   3.839   3.707   3.881   4.130   4.182   3.780   3.928   4.033   3.975   4.127   4.598   4.823   4.632   4.611   4.373   4.419   4.413   4.092   3.749   3.939   3.830   3.987
    62.42    4.472   4.148   3.495   3.888   4.038   3.946   4.111   3.688   3.953   3.980   4.222   4.218   4.280   4.853   4.892   4.687   4.475   4.485   4.197   3.981   4.219   3.756   3.899   3.360   3.611
    51.33    4.327   3.925   3.448   3.888   3.997   3.760   3.739   3.652   3.437   3.876   3.762   3.834   4.470   4.777   4.945   4.632   4.701   4.271   3.996   4.315   4.157   4.077   4.152   3.681   3.457
    40.25    4.292   3.669   3.562   3.379   3.451   3.559   3.616   3.523   3.823   3.820   3.703   3.901   4.425   4.334   4.836   4.360   4.381   4.373   4.257   4.218   4.215   3.832   3.967   3.793   3.572
    29.17    3.785   3.747   3.714   3.427   3.719   3.514   3.490   3.491   3.340   3.745   4.198   3.837   4.092   4.721   4.696   4.635   4.831   4.977   4.444   4.617   4.334   4.211   3.945   4.000   3.565
    18.08    3.701   4.068   3.710   3.441   3.405   3.197   3.114   3.375   3.433   3.656   3.811   3.970   3.994   4.370   4.697   4.576   4.728   4.467   4.753   4.539   4.434   4.143   4.126   4.277   3.969
     7.00    3.604   3.502   3.534   3.503   3.452   2.844   3.144   3.357   3.621   3.907   3.742   3.710   3.850   3.991   4.188   4.392   4.231   4.445   4.222   4.368   4.417   3.783   4.243   3.754   4.056

   Height   Standard deviation at grid points for the v component:
   273.00    3.002   3.002   3.002   3.002   3.002   3.002   3.002   3.002   3.002   3.002   3.002   3.002   3.002   3.002   3.002   3.002   3.002   3.002   3.002   3.002   3.002   3.002   3.002   3.002   3.002
   261.92    3.002   3.002   3.002   3.002   3.002   3.002   3.002   3.002   3.002   3.002   3.002   3.002   3.002   3.002   3.002   3.002   3.002   3.002   3.002   3.002   3.002   3.002   3.002   3.002   3.002
   250.83    3.002   3.002   3.002   3.002   3.002   3.002   3.002   3.002   3.002   3.002   3.002   3.002   3.002   3.002   3.002   3.002   3.002   3.002   3.002   3.002   3.002   3.002   3.002   3.002   3.002
   239.75    3.002   3.002   3.002   3.002   3.002   3.002   3.002   3.002   3.002   3.002   3.002   3.002   3.002   3.002   3.002   3.002   3.002   3.002   3.002   3.002   3.002   3.002   3.002   3.002   3.002
   228.67    3.002   3.002   3.002   3.002   3.002   3.002   3.002   3.002   3.002   3.002   3.002   3.002   3.002   3.002   3.002   3.002   3.002   3.002   3.002   3.002   3.002   3.002   3.002   3.002   3.002
   217.58    3.002   3.002   3.002   3.002   3.002   3.002   3.002   3.002   3.002   3.002   3.002   3.002   3.002   3.002   3.002   3.002   3.002   3.002   3.002   3.002   3.002   3.002   3.002   3.002   3.002
   206.50    3.002   3.002   3.002   3.002   3.002   3.002   3.002   3.002   3.002   3.002   3.002   3.002   3.002   3.002   3.002   3.002   3.002   3.002   3.002   3.002   3.002   3.002   3.002   3.002   3.002
   195.42    3.002   3.002   3.002   3.002   3.002   3.002   3.002   3.002   3.002   3.002   3.002   3.002   3.002   3.002   3.002   3.002   3.002   3.002   3.002   3.002   3.002   3.002   3.002   3.002   3.002
   184.33    3.002   3.002   3.002   3.002   3.002   3.002   3.002   3.002   3.002   3.002   3.002   3.002   3.002   3.002   3.002   3.002   3.002   3.002   3.002   3.002   3.002   3.002   3.002   3.002   3.002
   173.25    3.002   3.002   3.002   3.002   3.002   3.002   3.002   3.002   3.002   3.002   3.002   3.002   3.002   3.002   3.002   3.002   3.002   3.002   3.002   3.002   3.002   3.002   3.002   3.002   3.002
   162.17    3.002   3.002   3.002   3.002   3.002   3.002   3.002   3.002   3.002   3.002   3.002   3.002   3.002   3.002   3.002   3.002   3.002   3.002   3.002   3.002   3.002   3.002   3.002   3.002   3.002
   151.08    3.002   3.002   3.002   3.002   3.002   3.002   3.002   3.002   3.002   3.002   3.002   3.002   3.002   3.002   3.002   3.002   3.002   3.002   3.002   3.002   3.002   3.002   3.002   3.002   3.002
   140.00    3.002   3.002   3.002   3.002   3.002   3.002   3.002   3.002   3.002   3.002   3.002   3.002   3.002   3.002   3.002   3.002   3.002   3.002   3.002   3.002   3.002   3.002   3.002   3.002   3.002
   128.92    3.002   3.002   3.002   3.002   3.002   3.002   3.002   3.002   3.002   3.002   3.002   3.002   3.002   3.002   3.002   3.002   3.002   3.002   3.002   3.002   3.002   3.002   3.002   3.002   3.002
   117.83    3.002   3.002   3.002   3.002   3.002   3.002   3.002   3.002   3.002   3.002   3.002   3.002   3.002   3.002   3.002   3.002   3.002   3.002   3.002   3.002   3.002   3.002   3.002   3.002   3.002
   106.75    3.002   3.002   3.002   3.002   3.002   3.002   3.002   3.002   3.002   3.002   3.002   3.002   3.002   3.002   3.002   3.002   3.002   3.002   3.002   3.002   3.002   3.002   3.002   3.002   3.002
    95.67    3.002   3.002   3.002   3.002   3.002   3.002   3.002   3.002   3.002   3.002   3.002   3.002   3.002   3.002   3.002   3.002   3.002   3.002   3.002   3.002   3.002   3.002   3.002   3.002   3.002
    84.58    3.002   3.002   3.002   3.002   3.002   3.002   3.002   3.002   3.002   3.002   3.002   3.002   3.002   3.002   3.002   3.002   3.002   3.002   3.002   3.002   3.002   3.002   3.002   3.002   3.002
    73.50    3.002   3.002   3.002   3.002   3.002   3.002   3.002   3.002   3.002   3.002   3.002   3.002   3.002   3.002   3.002   3.002   3.002   3.002   3.002   3.002   3.002   3.002   3.002   3.002   3.002
    62.42    3.002   3.002   3.002   3.002   3.002   3.002   3.002   3.002   3.002   3.002   3.002   3.002   3.002   3.002   3.002   3.002   3.002   3.002   3.002   3.002   3.002   3.002   3.002   3.002   3.002
    51.33    3.002   3.002   3.002   3.002   3.002   3.002   3.002   3.002   3.002   3.002   3.002   3.002   3.002   3.002   3.002   3.002   3.002   3.002   3.002   3.002   3.002   3.002   3.002   3.002   3.002
    40.25    3.002   3.002   3.002   3.002   3.002   3.002   3.002   3.002   3.002   3.002   3.002   3.002   3.002   3.002   3.002   3.002   3.002   3.002   3.002   3.002   3.002   3.002   3.002   3.002   3.002
    29.17    3.002   3.002   3.002   3.002   3.002   3.002   3.002   3.002   3.002   3.002   3.002   3.002   3.002   3.002   3.002   3.002   3.002   3.002   3.002   3.002   3.002   3.002   3.002   3.002   3.002
    18.08    3.002   3.002   3.002   3.002   3.002   3.002   3.002   3.002   3.002   3.002   3.002   3.002   3.002   3.002   3.002   3.002   3.002   3.002   3.002   3.002   3.002   3.002   3.002   3.002   3.002
     7.00    3.002   3.002   3.002   3.002   3.002   3.002   3.002   3.002   3.002   3.002   3.002   3.002   3.002   3.002   3.002   3.002   3.002   3.002   3.002   3.002   3.002   3.002   3.002   3.002   3.002

   Height   Standard deviation at grid points for the w component:
   273.00    1.876   1.876   1.876   1.876   1.876   1.876   1.876   1.876   1.876   1.876   1.876   1.876   1.876   1.876   1.876   1.876   1.876   1.876   1.876   1.876   1.876   1.876   1.876   1.876   1.876
   261.92    1.876   1.876   1.876   1.876   1.876   1.876   1.876   1.876   1.876   1.876   1.876   1.876   1.876   1.876   1.876   1.876   1.876   1.876   1.876   1.876   1.876   1.876   1.876   1.876   1.876
   250.83    1.876   1.876   1.876   1.876   1.876   1.876   1.876   1.876   1.876   1.876   1.876   1.876   1.876   1.876   1.876   1.876   1.876   1.876   1.876   1.876   1.876   1.876   1.876   1.876   1.876
   239.75    1.876   1.876   1.876   1.876   1.876   1.876   1.876   1.876   1.876   1.876   1.876   1.876   1.876   1.876   1.876   1.876   1.876   1.876   1.876   1.876   1.876   1.876   1.876   1.876   1.876
   228.67    1.876   1.876   1.876   1.876   1.876   1.876   1.876   1.876   1.876   1.876   1.876   1.876   1.876   1.876   1.876   1.876   1.876   1.876   1.876   1.876   1.876   1.876   1.876   1.876   1.876
   217.58    1.876   1.876   1.876   1.876   1.876   1.876   1.876   1.876   1.876   1.876   1.876   1.876   1.876   1.876   1.876   1.876   1.876   1.876   1.876   1.876   1.876   1.876   1.876   1.876   1.876
   206.50    1.876   1.876   1.876   1.876   1.876   1.876   1.876   1.876   1.876   1.876   1.876   1.876   1.876   1.876   1.876   1.876   1.876   1.876   1.876   1.876   1.876   1.876   1.876   1.876   1.876
   195.42    1.876   1.876   1.876   1.876   1.876   1.876   1.876   1.876   1.876   1.876   1.876   1.876   1.876   1.876   1.876   1.876   1.876   1.876   1.876   1.876   1.876   1.876   1.876   1.876   1.876
   184.33    1.876   1.876   1.876   1.876   1.876   1.876   1.876   1.876   1.876   1.876   1.876   1.876   1.876   1.876   1.876   1.876   1.876   1.876   1.876   1.876   1.876   1.876   1.876   1.876   1.876
   173.25    1.876   1.876   1.876   1.876   1.876   1.876   1.876   1.876   1.876   1.876   1.876   1.876   1.876   1.876   1.876   1.876   1.876   1.876   1.876   1.876   1.876   1.876   1.876   1.876   1.876
   162.17    1.876   1.876   1.876   1.876   1.876   1.876   1.876   1.876   1.876   1.876   1.876   1.876   1.876   1.876   1.876   1.876   1.876   1.876   1.876   1.876   1.876   1.876   1.876   1.876   1.876
   151.08    1.876   1.876   1.876   1.876   1.876   1.876   1.876   1.876   1.876   1.876   1.876   1.876   1.876   1.876   1.876   1.876   1.876   1.876   1.876   1.876   1.876   1.876   1.876   1.876   1.876
   140.00    1.876   1.876   1.876   1.876   1.876   1.876   1.876   1.876   1.876   1.876   1.876   1.876   1.876   1.876   1.876   1.876   1.876   1.876   1.876   1.876   1.876   1.876   1.876   1.876   1.876
   128.92    1.876   1.876   1.876   1.876   1.876   1.876   1.876   1.876   1.876   1.876   1.876   1.876   1.876   1.876   1.876   1.876   1.876   1.876   1.876   1.876   1.876   1.876   1.876   1.876   1.876
   117.83    1.876   1.876   1.876   1.876   1.876   1.876   1.876   1.876   1.876   1.876   1.876   1.876   1.876   1.876   1.876   1.876   1.876   1.876   1.876   1.876   1.876   1.876   1.876   1.876   1.876
   106.75    1.876   1.876   1.876   1.876   1.876   1.876   1.876   1.876   1.876   1.876   1.876   1.876   1.876   1.876   1.876   1.876   1.876   1.876   1.876   1.876   1.876   1.876   1.876   1.876   1.876
    95.67    1.876   1.876   1.876   1.876   1.876   1.876   1.876   1.876   1.876   1.876   1.876   1.876   1.876   1.876   1.876   1.876   1.876   1.876   1.876   1.876   1.876   1.876   1.876   1.876   1.876
    84.58    1.876   1.876   1.876   1.876   1.876   1.876   1.876   1.876   1.876   1.876   1.876   1.876   1.876   1.876   1.876   1.876   1.876   1.876   1.876   1.876   1.876   1.876   1.876   1.876   1.876
    73.50    1.876   1.876   1.876   1.876   1.876   1.876   1.876   1.876   1.876   1.876   1.876   1.876   1.876   1.876   1.876   1.876   1.876   1.876   1.876   1.876   1.876   1.876   1.876   1.876   1.876
    62.42    1.876   1.876   1.876   1.876   1.876   1.876   1.876   1.876   1.876   1.876   1.876   1.876   1.876   1.876   1.876   1.876   1.876   1.876   1.876   1.876   1.876   1.876   1.876   1.876   1.876
    51.33    1.876   1.876   1.876   1.876   1.876   1.876   1.876   1.876   1.876   1.876   1.876   1.876   1.876   1.876   1.876   1.876   1.876   1.876   1.876   1.876   1.876   1.876   1.876   1.876   1.876
    40.25    1.876   1.876   1.876   1.876   1.876   1.876   1.876   1.876   1.876   1.876   1.876   1.876   1.876   1.876   1.876   1.876   1.876   1.876   1.876   1.876   1.876   1.876   1.876   1.876   1.876
    29.17    1.876   1.876   1.876   1.876   1.876   1.876   1.876   1.876   1.876   1.876   1.876   1.876   1.876   1.876   1.876   1.876   1.876   1.876   1.876   1.876   1.876   1.876   1.876   1.876   1.876
    18.08    1.876   1.876   1.876   1.876   1.876   1.876   1.876   1.876   1.876   1.876   1.876   1.876   1.876   1.876   1.876   1.876   1.876   1.876   1.876   1.876   1.876   1.876   1.876   1.876   1.876
     7.00    1.876   1.876   1.876   1.876   1.876   1.876   1.876   1.876   1.876   1.876   1.876   1.876   1.876   1.876   1.876   1.876   1.876   1.876   1.876   1.876   1.876   1.876   1.876   1.876   1.876

   Mean standard deviation across all grid points:
      u component:    3.745 m/s
      v component:    3.002 m/s
      w component:    1.876 m/s


U-component (X) statistics from the interpolated hub point:

   Mean =  25.0000 m/s
   TI   =  13.8348 %


Processing complete.  62.995 CPU seconds used.
