
This summary file was generated by TurbSim (v2.00.08a-bjj, 18-Jul-2017) on 24-Jul-2020 at 16:42:52.


Runtime Options:

        11  Random seed #1
    RANLUX  Type of random number generator
         F  Output binary HH turbulence parameters?
         F  Output formatted turbulence parameters?
         F  Output AeroDyn HH files?
         T  Output AeroDyn FF files?
         F  Output BLADED FF files?
         F  Output tower data?
         F  Output formatted FF files?
         F  Output coherent turbulence time step file?
         T  Clockwise rotation when looking downwind?
 0 -  NONE  IEC turbulence models scaled to exact specified standard deviation


Turbine/Model Specifications:

        25  Vertical grid-point matrix dimension
        25  Horizontal grid-point matrix dimension
     0.050  Time step [seconds]
   180.000  Analysis time [seconds]
   180.000  Usable output time [seconds]
   140.000  Hub height [m]
   266.000  Grid height [m]
   266.000  Grid width [m]
     0.000  Vertical flow angle [degrees]
     0.000  Horizontal flow angle [degrees]


Meteorological Boundary Conditions:

    IECKAI  IEC Kaimal spectral model
         1  IEC standard: IEC 61400-1 Ed. 3: 2005
         A  IEC turbulence characteristic
       NTM  IEC Normal Turbulence Model
       N/A  IEC Extreme Turbulence Model (ETM) "c" parameter [m/s]
       PL   Wind profile type
   140.000  Reference height [m]
    23.000  Reference wind speed [m/s]
       N/A  Jet height [m]
     0.200  Power law exponent
     0.030  Surface roughness length [m]


Non-IEC Meteorological Boundary Conditions:

       N/A  Site latitude [degrees]
       N/A  Gradient Richardson number
       N/A  Friction or shear velocity [m/s]
       N/A  Mixing layer depth [m]
       N/A  Mean hub u'w' Reynolds stress
       N/A  Mean hub u'v' Reynolds stress
       N/A  Mean hub v'w' Reynolds stress


Spatial Coherence Models:

   GENERAL  u-component coherence model
   GENERAL  v-component coherence model
   GENERAL  w-component coherence model
(   12.000, 0.353E-03)  u-component coherence parameters
(*********,  0.00    )  v-component coherence parameters
(*********,  0.00    )  w-component coherence parameters
     0.000  Coherence exponent


You have requested that the following file(s) be generated:

   /home/mertzb/Documents/Analysis/BAR10/temp/Testing/Testing_powercurve_NTM_U23.000000_Seed11.0.bts (AeroDyn/TurbSim full-field wind file)


Turbulence Simulation Scaling Parameter Summary:

   Turbulence model used                            =  IEC Kaimal
   Turbulence characteristic                        =  A
   IEC turbulence type                              =  Normal Turbulence Model
   IEC standard                                     =  IEC 61400-1 Ed. 3: 2005
   Mean wind speed at hub height                    =   23.000 m/s
   Expected value of turbulence intensity at 15 m/s =   16.000%
   Characteristic value of standard deviation       =    3.656 m/s
   Turbulence scale                                 =   42.000 m
   u-component integral scale                       =  340.200 m
   Coherency scale                                  =  340.200 m
   Characteristic value of hub turbulence intensity =   15.896%
   Gradient Richardson number                       =    0.000

   Wind profile type                                =  Power law
   Power law exponent                               =    0.200
   Mean shear across rotor disk                     =    0.051 (m/s)/m
   Assumed rotor diameter                           =  266.000 m
   Surface roughness length                         =    0.030 m

   Nyquist frequency of turbulent wind field        =   10.000 Hz

   Number of time steps in the FFT                  =     3600
   Number of time steps output                      =     3600
   Number of points simulated                       =      625


Mean Flow Angles:

   Vertical   =   0.0 degrees
   Horizontal =   0.0 degrees

Mean Wind Speed Profile:

   Height    Wind Speed   Horizontal Angle  Vertical Angle  U-comp (X)   V-comp (Y)   W-comp (Z)
     (m)        (m/s)         (degrees)       (degrees)       (m/s)        (m/s)        (m/s)   
   ------    ----------   ----------------  --------------  ----------   ----------   ----------
    273.0       26.29            0.00            0.00         26.29         0.00         0.00
    261.9       26.07            0.00            0.00         26.07         0.00         0.00
    250.8       25.85            0.00            0.00         25.85         0.00         0.00
    239.8       25.61            0.00            0.00         25.61         0.00         0.00
    228.7       25.37            0.00            0.00         25.37         0.00         0.00
    217.6       25.12            0.00            0.00         25.12         0.00         0.00
    206.5       24.86            0.00            0.00         24.86         0.00         0.00
    195.4       24.59            0.00            0.00         24.59         0.00         0.00
    184.3       24.30            0.00            0.00         24.30         0.00         0.00
    173.2       24.00            0.00            0.00         24.00         0.00         0.00
    162.2       23.69            0.00            0.00         23.69         0.00         0.00
    151.1       23.35            0.00            0.00         23.35         0.00         0.00
    140.0       23.00            0.00            0.00         23.00         0.00         0.00
    128.9       22.62            0.00            0.00         22.62         0.00         0.00
    117.8       22.22            0.00            0.00         22.22         0.00         0.00
    106.8       21.79            0.00            0.00         21.79         0.00         0.00
     95.7       21.31            0.00            0.00         21.31         0.00         0.00
     84.6       20.80            0.00            0.00         20.80         0.00         0.00
     73.5       20.22            0.00            0.00         20.22         0.00         0.00
     62.4       19.57            0.00            0.00         19.57         0.00         0.00
     51.3       18.82            0.00            0.00         18.82         0.00         0.00
     40.2       17.92            0.00            0.00         17.92         0.00         0.00
     29.2       16.81            0.00            0.00         16.81         0.00         0.00
     18.1       15.27            0.00            0.00         15.27         0.00         0.00
      7.0       12.63            0.00            0.00         12.63         0.00         0.00


Harvested Random Seeds after Generation of the Random Numbers:

     31359375 K 1
            0 K 2


Hub-Height Simulated Turbulence Statistical Summary:

   Type of Wind        Min (m/s)   Mean (m/s)    Max (m/s)  Sigma (m/s)       TI (%)
   ----------------    ---------   ----------    ---------  -----------       ------
   Longitudinal (u)        10.77        23.00        34.05        4.006       17.416
   Lateral (v)             -8.42        -0.00         8.95        2.813       12.232
   Vertical (w)            -5.33         0.00         6.96        1.763        7.663
   U component             10.77        23.00        34.05        4.006       17.416
   V component             -8.42        -0.00         8.95        2.813       12.232
   W component             -5.33         0.00         6.96        1.763        7.663
   Horizontal (U&V)        11.16        23.18        34.08        3.971       17.131
   Total                   11.31        23.25        34.43        3.954       17.011

                       Min Reynolds     Mean Reynolds    Max Reynolds    Correlation
   Product             Stress (m/s)^2   Stress (m/s)^2   Stress (m/s)^2  Coefficient
   ----------------    --------------   --------------   --------------  -----------
   u'w'                    -54.743            -0.705            24.816        -0.100
   u'v'                    -68.979             0.831            56.567         0.074
   v'w'                    -30.631            -0.015            31.378        -0.003


   Friction Velocity (Ustar)  =      0.839 m/s
   Maximum Instantaneous TKE  =     86.431 (m/s)^2
   Maximum Instantaneous CTKE =     37.935 (m/s)^2


Grid Point Variance Summary:

   Y-coord -133.00 -121.92 -110.83  -99.75  -88.67  -77.58  -66.50  -55.42  -44.33  -33.25  -22.17  -11.08    0.00   11.08   22.17   33.25   44.33   55.42   66.50   77.58   88.67   99.75  110.83  121.92  133.00

   Height   Standard deviation at grid points for the u component:
   273.00    3.931   3.991   3.653   3.540   3.924   3.773   3.273   3.217   3.722   3.341   3.429   3.115   3.430   3.234   2.954   3.277   3.390   3.569   3.762   3.701   3.763   3.601   3.579   3.650   3.720
   261.92    4.180   3.934   3.877   3.850   4.196   4.193   3.874   3.462   4.117   3.573   3.193   3.103   3.333   3.149   3.101   3.285   3.484   3.640   3.587   3.627   3.999   3.810   3.607   3.517   3.784
   250.83    4.125   3.821   3.962   4.109   3.978   3.996   3.610   3.806   3.804   3.526   3.304   3.190   3.298   3.338   3.720   3.540   3.345   3.636   3.784   3.746   3.273   3.513   3.526   3.257   3.482
   239.75    3.763   3.615   3.837   3.619   3.281   3.582   3.670   3.654   3.247   3.686   3.472   3.624   3.239   3.615   3.901   3.989   3.633   4.178   3.571   3.388   3.466   3.157   3.243   3.176   3.557
   228.67    3.466   3.112   3.436   3.561   3.443   3.660   3.578   3.298   3.720   3.771   3.887   3.873   3.198   3.573   3.819   3.917   4.261   3.841   4.135   3.350   3.273   2.777   2.888   2.874   3.360
   217.58    3.353   3.438   3.434   3.441   3.508   3.569   2.983   3.347   3.819   3.901   3.913   3.758   3.567   3.460   3.613   3.870   3.984   3.840   3.926   3.647   3.185   2.781   2.646   3.041   3.026
   206.50    3.608   3.616   3.683   3.403   3.618   3.240   2.972   3.238   3.557   3.577   4.121   4.306   3.974   3.595   3.875   4.056   3.760   3.868   3.775   3.338   3.301   2.875   3.210   2.925   3.444
   195.42    3.736   3.456   3.417   3.118   3.148   3.482   3.331   3.798   3.489   3.798   3.794   4.036   4.001   3.382   3.796   3.830   4.124   3.762   3.689   3.097   3.025   3.238   3.160   3.118   3.196
   184.33    3.615   3.279   2.891   2.988   3.041   3.525   3.499   4.283   4.067   4.162   4.135   3.960   3.802   3.638   3.693   3.532   3.642   3.680   3.659   3.181   3.387   3.052   3.015   3.290   3.172
   173.25    3.452   3.204   3.251   2.879   3.352   3.371   3.979   4.463   4.335   4.093   4.131   4.077   3.895   4.124   3.679   3.592   3.521   3.689   3.545   3.321   3.345   3.417   3.095   3.303   3.478
   162.17    3.179   2.878   3.148   3.065   3.453   3.924   4.015   4.307   4.775   4.548   4.306   4.102   4.130   4.294   3.994   4.009   3.674   3.227   3.445   3.283   3.603   3.398   3.823   3.762   3.284
   151.08    2.994   2.985   2.842   3.182   3.555   3.797   4.018   3.977   4.471   4.985   4.710   4.471   4.276   4.134   4.114   3.944   3.688   3.476   3.284   3.355   3.512   3.444   3.709   3.662   3.712
   140.00    3.091   2.560   2.626   3.297   3.409   3.427   3.790   4.435   4.834   5.040   4.766   4.484   4.006   3.518   3.684   3.620   3.595   3.240   3.244   3.089   3.520   3.652   3.598   3.928   3.773
   128.92    2.828   2.723   2.801   3.348   3.817   3.756   3.834   4.128   4.569   4.686   4.880   4.323   3.784   3.635   3.446   3.430   2.967   3.383   3.299   3.370   3.495   3.700   3.688   3.666   3.792
   117.83    2.850   2.806   3.053   3.221   3.470   3.866   3.900   3.700   4.166   4.488   4.776   4.393   3.648   3.559   3.171   3.180   3.132   3.508   3.238   3.340   3.297   3.709   3.510   3.721   3.558
   106.75    3.367   3.300   3.107   3.372   3.389   3.392   3.727   3.819   3.797   4.073   4.131   4.007   3.701   3.618   3.081   3.158   3.142   3.203   3.240   3.543   3.590   3.634   3.278   3.335   3.459
    95.67    3.468   3.272   3.632   3.329   3.444   3.473   3.528   3.342   3.484   3.409   3.605   3.333   3.220   3.063   3.226   3.368   3.357   3.270   2.976   3.191   3.698   3.480   3.653   3.643   3.449
    84.58    3.290   3.520   3.549   3.408   3.223   3.311   3.055   3.264   3.339   3.277   3.061   3.232   3.279   3.173   3.622   3.611   2.871   3.002   3.073   3.216   3.567   3.724   3.588   3.737   3.657
    73.50    3.748   3.610   3.584   3.249   3.584   3.633   3.384   3.041   3.340   3.359   3.390   3.654   3.186   3.118   3.360   3.488   3.239   3.485   3.538   3.329   3.453   3.706   3.460   3.680   3.823
    62.42    3.688   3.534   3.526   3.578   3.873   3.568   3.750   3.588   3.662   3.872   3.684   3.372   3.389   2.888   3.252   3.220   3.130   3.547   3.863   3.731   3.781   3.680   3.345   3.193   3.517
    51.33    3.551   3.784   3.677   3.316   3.895   3.881   3.819   3.379   3.639   3.578   3.368   3.312   2.767   2.661   3.281   3.343   3.273   3.401   3.509   3.758   3.635   3.550   3.219   3.237   3.199
    40.25    3.656   3.403   3.559   3.804   3.594   3.934   3.863   3.740   3.614   3.486   3.760   3.298   2.961   2.942   3.353   3.640   3.518   4.054   3.564   3.388   3.870   3.416   3.191   3.194   3.071
    29.17    3.638   3.295   3.217   3.634   3.804   3.646   3.759   3.764   3.548   3.502   3.289   3.326   3.305   2.868   3.434   3.258   3.341   3.836   3.455   3.515   3.302   3.613   3.336   3.119   2.962
    18.08    3.561   3.300   3.504   3.892   3.982   4.154   3.707   3.706   3.787   3.983   3.551   3.344   3.108   3.249   3.314   3.432   3.755   3.524   3.454   3.495   3.140   3.140   2.958   3.200   2.972
     7.00    3.364   2.967   3.326   3.762   4.018   4.359   4.356   4.141   3.924   3.963   4.119   3.443   2.886   3.228   3.189   2.982   3.193   3.143   2.964   3.381   3.011   3.022   2.747   3.020   2.991

   Height   Standard deviation at grid points for the v component:
   273.00    2.813   2.813   2.813   2.813   2.813   2.813   2.813   2.813   2.813   2.813   2.813   2.813   2.813   2.813   2.813   2.813   2.813   2.813   2.813   2.813   2.813   2.813   2.813   2.813   2.813
   261.92    2.813   2.813   2.813   2.813   2.813   2.813   2.813   2.813   2.813   2.813   2.813   2.813   2.813   2.813   2.813   2.813   2.813   2.813   2.813   2.813   2.813   2.813   2.813   2.813   2.813
   250.83    2.813   2.813   2.813   2.813   2.813   2.813   2.813   2.813   2.813   2.813   2.813   2.813   2.813   2.813   2.813   2.813   2.813   2.813   2.813   2.813   2.813   2.813   2.813   2.813   2.813
   239.75    2.813   2.813   2.813   2.813   2.813   2.813   2.813   2.813   2.813   2.813   2.813   2.813   2.813   2.813   2.813   2.813   2.813   2.813   2.813   2.813   2.813   2.813   2.813   2.813   2.813
   228.67    2.813   2.813   2.813   2.813   2.813   2.813   2.813   2.813   2.813   2.813   2.813   2.813   2.813   2.813   2.813   2.813   2.813   2.813   2.813   2.813   2.813   2.813   2.813   2.813   2.813
   217.58    2.813   2.813   2.813   2.813   2.813   2.813   2.813   2.813   2.813   2.813   2.813   2.813   2.813   2.813   2.813   2.813   2.813   2.813   2.813   2.813   2.813   2.813   2.813   2.813   2.813
   206.50    2.813   2.813   2.813   2.813   2.813   2.813   2.813   2.813   2.813   2.813   2.813   2.813   2.813   2.813   2.813   2.813   2.813   2.813   2.813   2.813   2.813   2.813   2.813   2.813   2.813
   195.42    2.813   2.813   2.813   2.813   2.813   2.813   2.813   2.813   2.813   2.813   2.813   2.813   2.813   2.813   2.813   2.813   2.813   2.813   2.813   2.813   2.813   2.813   2.813   2.813   2.813
   184.33    2.813   2.813   2.813   2.813   2.813   2.813   2.813   2.813   2.813   2.813   2.813   2.813   2.813   2.813   2.813   2.813   2.813   2.813   2.813   2.813   2.813   2.813   2.813   2.813   2.813
   173.25    2.813   2.813   2.813   2.813   2.813   2.813   2.813   2.813   2.813   2.813   2.813   2.813   2.813   2.813   2.813   2.813   2.813   2.813   2.813   2.813   2.813   2.813   2.813   2.813   2.813
   162.17    2.813   2.813   2.813   2.813   2.813   2.813   2.813   2.813   2.813   2.813   2.813   2.813   2.813   2.813   2.813   2.813   2.813   2.813   2.813   2.813   2.813   2.813   2.813   2.813   2.813
   151.08    2.813   2.813   2.813   2.813   2.813   2.813   2.813   2.813   2.813   2.813   2.813   2.813   2.813   2.813   2.813   2.813   2.813   2.813   2.813   2.813   2.813   2.813   2.813   2.813   2.813
   140.00    2.813   2.813   2.813   2.813   2.813   2.813   2.813   2.813   2.813   2.813   2.813   2.813   2.813   2.813   2.813   2.813   2.813   2.813   2.813   2.813   2.813   2.813   2.813   2.813   2.813
   128.92    2.813   2.813   2.813   2.813   2.813   2.813   2.813   2.813   2.813   2.813   2.813   2.813   2.813   2.813   2.813   2.813   2.813   2.813   2.813   2.813   2.813   2.813   2.813   2.813   2.813
   117.83    2.813   2.813   2.813   2.813   2.813   2.813   2.813   2.813   2.813   2.813   2.813   2.813   2.813   2.813   2.813   2.813   2.813   2.813   2.813   2.813   2.813   2.813   2.813   2.813   2.813
   106.75    2.813   2.813   2.813   2.813   2.813   2.813   2.813   2.813   2.813   2.813   2.813   2.813   2.813   2.813   2.813   2.813   2.813   2.813   2.813   2.813   2.813   2.813   2.813   2.813   2.813
    95.67    2.813   2.813   2.813   2.813   2.813   2.813   2.813   2.813   2.813   2.813   2.813   2.813   2.813   2.813   2.813   2.813   2.813   2.813   2.813   2.813   2.813   2.813   2.813   2.813   2.813
    84.58    2.813   2.813   2.813   2.813   2.813   2.813   2.813   2.813   2.813   2.813   2.813   2.813   2.813   2.813   2.813   2.813   2.813   2.813   2.813   2.813   2.813   2.813   2.813   2.813   2.813
    73.50    2.813   2.813   2.813   2.813   2.813   2.813   2.813   2.813   2.813   2.813   2.813   2.813   2.813   2.813   2.813   2.813   2.813   2.813   2.813   2.813   2.813   2.813   2.813   2.813   2.813
    62.42    2.813   2.813   2.813   2.813   2.813   2.813   2.813   2.813   2.813   2.813   2.813   2.813   2.813   2.813   2.813   2.813   2.813   2.813   2.813   2.813   2.813   2.813   2.813   2.813   2.813
    51.33    2.813   2.813   2.813   2.813   2.813   2.813   2.813   2.813   2.813   2.813   2.813   2.813   2.813   2.813   2.813   2.813   2.813   2.813   2.813   2.813   2.813   2.813   2.813   2.813   2.813
    40.25    2.813   2.813   2.813   2.813   2.813   2.813   2.813   2.813   2.813   2.813   2.813   2.813   2.813   2.813   2.813   2.813   2.813   2.813   2.813   2.813   2.813   2.813   2.813   2.813   2.813
    29.17    2.813   2.813   2.813   2.813   2.813   2.813   2.813   2.813   2.813   2.813   2.813   2.813   2.813   2.813   2.813   2.813   2.813   2.813   2.813   2.813   2.813   2.813   2.813   2.813   2.813
    18.08    2.813   2.813   2.813   2.813   2.813   2.813   2.813   2.813   2.813   2.813   2.813   2.813   2.813   2.813   2.813   2.813   2.813   2.813   2.813   2.813   2.813   2.813   2.813   2.813   2.813
     7.00    2.813   2.813   2.813   2.813   2.813   2.813   2.813   2.813   2.813   2.813   2.813   2.813   2.813   2.813   2.813   2.813   2.813   2.813   2.813   2.813   2.813   2.813   2.813   2.813   2.813

   Height   Standard deviation at grid points for the w component:
   273.00    1.763   1.763   1.763   1.763   1.763   1.763   1.763   1.763   1.763   1.763   1.763   1.763   1.763   1.763   1.763   1.763   1.763   1.763   1.763   1.763   1.763   1.763   1.763   1.763   1.763
   261.92    1.763   1.763   1.763   1.763   1.763   1.763   1.763   1.763   1.763   1.763   1.763   1.763   1.763   1.763   1.763   1.763   1.763   1.763   1.763   1.763   1.763   1.763   1.763   1.763   1.763
   250.83    1.763   1.763   1.763   1.763   1.763   1.763   1.763   1.763   1.763   1.763   1.763   1.763   1.763   1.763   1.763   1.763   1.763   1.763   1.763   1.763   1.763   1.763   1.763   1.763   1.763
   239.75    1.763   1.763   1.763   1.763   1.763   1.763   1.763   1.763   1.763   1.763   1.763   1.763   1.763   1.763   1.763   1.763   1.763   1.763   1.763   1.763   1.763   1.763   1.763   1.763   1.763
   228.67    1.763   1.763   1.763   1.763   1.763   1.763   1.763   1.763   1.763   1.763   1.763   1.763   1.763   1.763   1.763   1.763   1.763   1.763   1.763   1.763   1.763   1.763   1.763   1.763   1.763
   217.58    1.763   1.763   1.763   1.763   1.763   1.763   1.763   1.763   1.763   1.763   1.763   1.763   1.763   1.763   1.763   1.763   1.763   1.763   1.763   1.763   1.763   1.763   1.763   1.763   1.763
   206.50    1.763   1.763   1.763   1.763   1.763   1.763   1.763   1.763   1.763   1.763   1.763   1.763   1.763   1.763   1.763   1.763   1.763   1.763   1.763   1.763   1.763   1.763   1.763   1.763   1.763
   195.42    1.763   1.763   1.763   1.763   1.763   1.763   1.763   1.763   1.763   1.763   1.763   1.763   1.763   1.763   1.763   1.763   1.763   1.763   1.763   1.763   1.763   1.763   1.763   1.763   1.763
   184.33    1.763   1.763   1.763   1.763   1.763   1.763   1.763   1.763   1.763   1.763   1.763   1.763   1.763   1.763   1.763   1.763   1.763   1.763   1.763   1.763   1.763   1.763   1.763   1.763   1.763
   173.25    1.763   1.763   1.763   1.763   1.763   1.763   1.763   1.763   1.763   1.763   1.763   1.763   1.763   1.763   1.763   1.763   1.763   1.763   1.763   1.763   1.763   1.763   1.763   1.763   1.763
   162.17    1.763   1.763   1.763   1.763   1.763   1.763   1.763   1.763   1.763   1.763   1.763   1.763   1.763   1.763   1.763   1.763   1.763   1.763   1.763   1.763   1.763   1.763   1.763   1.763   1.763
   151.08    1.763   1.763   1.763   1.763   1.763   1.763   1.763   1.763   1.763   1.763   1.763   1.763   1.763   1.763   1.763   1.763   1.763   1.763   1.763   1.763   1.763   1.763   1.763   1.763   1.763
   140.00    1.763   1.763   1.763   1.763   1.763   1.763   1.763   1.763   1.763   1.763   1.763   1.763   1.763   1.763   1.763   1.763   1.763   1.763   1.763   1.763   1.763   1.763   1.763   1.763   1.763
   128.92    1.763   1.763   1.763   1.763   1.763   1.763   1.763   1.763   1.763   1.763   1.763   1.763   1.763   1.763   1.763   1.763   1.763   1.763   1.763   1.763   1.763   1.763   1.763   1.763   1.763
   117.83    1.763   1.763   1.763   1.763   1.763   1.763   1.763   1.763   1.763   1.763   1.763   1.763   1.763   1.763   1.763   1.763   1.763   1.763   1.763   1.763   1.763   1.763   1.763   1.763   1.763
   106.75    1.763   1.763   1.763   1.763   1.763   1.763   1.763   1.763   1.763   1.763   1.763   1.763   1.763   1.763   1.763   1.763   1.763   1.763   1.763   1.763   1.763   1.763   1.763   1.763   1.763
    95.67    1.763   1.763   1.763   1.763   1.763   1.763   1.763   1.763   1.763   1.763   1.763   1.763   1.763   1.763   1.763   1.763   1.763   1.763   1.763   1.763   1.763   1.763   1.763   1.763   1.763
    84.58    1.763   1.763   1.763   1.763   1.763   1.763   1.763   1.763   1.763   1.763   1.763   1.763   1.763   1.763   1.763   1.763   1.763   1.763   1.763   1.763   1.763   1.763   1.763   1.763   1.763
    73.50    1.763   1.763   1.763   1.763   1.763   1.763   1.763   1.763   1.763   1.763   1.763   1.763   1.763   1.763   1.763   1.763   1.763   1.763   1.763   1.763   1.763   1.763   1.763   1.763   1.763
    62.42    1.763   1.763   1.763   1.763   1.763   1.763   1.763   1.763   1.763   1.763   1.763   1.763   1.763   1.763   1.763   1.763   1.763   1.763   1.763   1.763   1.763   1.763   1.763   1.763   1.763
    51.33    1.763   1.763   1.763   1.763   1.763   1.763   1.763   1.763   1.763   1.763   1.763   1.763   1.763   1.763   1.763   1.763   1.763   1.763   1.763   1.763   1.763   1.763   1.763   1.763   1.763
    40.25    1.763   1.763   1.763   1.763   1.763   1.763   1.763   1.763   1.763   1.763   1.763   1.763   1.763   1.763   1.763   1.763   1.763   1.763   1.763   1.763   1.763   1.763   1.763   1.763   1.763
    29.17    1.763   1.763   1.763   1.763   1.763   1.763   1.763   1.763   1.763   1.763   1.763   1.763   1.763   1.763   1.763   1.763   1.763   1.763   1.763   1.763   1.763   1.763   1.763   1.763   1.763
    18.08    1.763   1.763   1.763   1.763   1.763   1.763   1.763   1.763   1.763   1.763   1.763   1.763   1.763   1.763   1.763   1.763   1.763   1.763   1.763   1.763   1.763   1.763   1.763   1.763   1.763
     7.00    1.763   1.763   1.763   1.763   1.763   1.763   1.763   1.763   1.763   1.763   1.763   1.763   1.763   1.763   1.763   1.763   1.763   1.763   1.763   1.763   1.763   1.763   1.763   1.763   1.763

   Mean standard deviation across all grid points:
      u component:    3.543 m/s
      v component:    2.813 m/s
      w component:    1.763 m/s


U-component (X) statistics from the interpolated hub point:

   Mean =  23.0000 m/s
   TI   =  17.4164 %


Processing complete.  58.703 CPU seconds used.
