
This summary file was generated by TurbSim (v2.00.08a-bjj, 18-Jul-2017) on 24-Jul-2020 at 16:32:52.


Runtime Options:

        12  Random seed #1
    RANLUX  Type of random number generator
         F  Output binary HH turbulence parameters?
         F  Output formatted turbulence parameters?
         F  Output AeroDyn HH files?
         T  Output AeroDyn FF files?
         F  Output BLADED FF files?
         F  Output tower data?
         F  Output formatted FF files?
         F  Output coherent turbulence time step file?
         T  Clockwise rotation when looking downwind?
 0 -  NONE  IEC turbulence models scaled to exact specified standard deviation


Turbine/Model Specifications:

        25  Vertical grid-point matrix dimension
        25  Horizontal grid-point matrix dimension
     0.050  Time step [seconds]
   180.000  Analysis time [seconds]
   180.000  Usable output time [seconds]
   140.000  Hub height [m]
   266.000  Grid height [m]
   266.000  Grid width [m]
     0.000  Vertical flow angle [degrees]
     0.000  Horizontal flow angle [degrees]


Meteorological Boundary Conditions:

    IECKAI  IEC Kaimal spectral model
         1  IEC standard: IEC 61400-1 Ed. 3: 2005
         A  IEC turbulence characteristic
       NTM  IEC Normal Turbulence Model
       N/A  IEC Extreme Turbulence Model (ETM) "c" parameter [m/s]
       PL   Wind profile type
   140.000  Reference height [m]
     7.000  Reference wind speed [m/s]
       N/A  Jet height [m]
     0.200  Power law exponent
     0.030  Surface roughness length [m]


Non-IEC Meteorological Boundary Conditions:

       N/A  Site latitude [degrees]
       N/A  Gradient Richardson number
       N/A  Friction or shear velocity [m/s]
       N/A  Mixing layer depth [m]
       N/A  Mean hub u'w' Reynolds stress
       N/A  Mean hub u'v' Reynolds stress
       N/A  Mean hub v'w' Reynolds stress


Spatial Coherence Models:

   GENERAL  u-component coherence model
   GENERAL  v-component coherence model
   GENERAL  w-component coherence model
(   12.000, 0.353E-03)  u-component coherence parameters
(*********,  0.00    )  v-component coherence parameters
(*********,  0.00    )  w-component coherence parameters
     0.000  Coherence exponent


You have requested that the following file(s) be generated:

   /home/mertzb/Documents/Analysis/BAR10/temp/Testing/Testing_powercurve_NTM_U7.000000_Seed12.0.bts (AeroDyn/TurbSim full-field wind file)


Turbulence Simulation Scaling Parameter Summary:

   Turbulence model used                            =  IEC Kaimal
   Turbulence characteristic                        =  A
   IEC turbulence type                              =  Normal Turbulence Model
   IEC standard                                     =  IEC 61400-1 Ed. 3: 2005
   Mean wind speed at hub height                    =    7.000 m/s
   Expected value of turbulence intensity at 15 m/s =   16.000%
   Characteristic value of standard deviation       =    1.736 m/s
   Turbulence scale                                 =   42.000 m
   u-component integral scale                       =  340.200 m
   Coherency scale                                  =  340.200 m
   Characteristic value of hub turbulence intensity =   24.800%
   Gradient Richardson number                       =    0.000

   Wind profile type                                =  Power law
   Power law exponent                               =    0.200
   Mean shear across rotor disk                     =    0.016 (m/s)/m
   Assumed rotor diameter                           =  266.000 m
   Surface roughness length                         =    0.030 m

   Nyquist frequency of turbulent wind field        =   10.000 Hz

   Number of time steps in the FFT                  =     3600
   Number of time steps output                      =     3600
   Number of points simulated                       =      625


Mean Flow Angles:

   Vertical   =   0.0 degrees
   Horizontal =   0.0 degrees

Mean Wind Speed Profile:

   Height    Wind Speed   Horizontal Angle  Vertical Angle  U-comp (X)   V-comp (Y)   W-comp (Z)
     (m)        (m/s)         (degrees)       (degrees)       (m/s)        (m/s)        (m/s)   
   ------    ----------   ----------------  --------------  ----------   ----------   ----------
    273.0        8.00            0.00            0.00          8.00         0.00         0.00
    261.9        7.93            0.00            0.00          7.93         0.00         0.00
    250.8        7.87            0.00            0.00          7.87         0.00         0.00
    239.8        7.80            0.00            0.00          7.80         0.00         0.00
    228.7        7.72            0.00            0.00          7.72         0.00         0.00
    217.6        7.65            0.00            0.00          7.65         0.00         0.00
    206.5        7.57            0.00            0.00          7.57         0.00         0.00
    195.4        7.48            0.00            0.00          7.48         0.00         0.00
    184.3        7.40            0.00            0.00          7.40         0.00         0.00
    173.2        7.30            0.00            0.00          7.30         0.00         0.00
    162.2        7.21            0.00            0.00          7.21         0.00         0.00
    151.1        7.11            0.00            0.00          7.11         0.00         0.00
    140.0        7.00            0.00            0.00          7.00         0.00         0.00
    128.9        6.89            0.00            0.00          6.89         0.00         0.00
    117.8        6.76            0.00            0.00          6.76         0.00         0.00
    106.8        6.63            0.00            0.00          6.63         0.00         0.00
     95.7        6.49            0.00            0.00          6.49         0.00         0.00
     84.6        6.33            0.00            0.00          6.33         0.00         0.00
     73.5        6.15            0.00            0.00          6.15         0.00         0.00
     62.4        5.96            0.00            0.00          5.96         0.00         0.00
     51.3        5.73            0.00            0.00          5.73         0.00         0.00
     40.2        5.46            0.00            0.00          5.46         0.00         0.00
     29.2        5.12            0.00            0.00          5.12         0.00         0.00
     18.1        4.65            0.00            0.00          4.65         0.00         0.00
      7.0        3.84            0.00            0.00          3.84         0.00         0.00


Harvested Random Seeds after Generation of the Random Numbers:

     31359375 K 1
            0 K 2


Hub-Height Simulated Turbulence Statistical Summary:

   Type of Wind        Min (m/s)   Mean (m/s)    Max (m/s)  Sigma (m/s)       TI (%)
   ----------------    ---------   ----------    ---------  -----------       ------
   Longitudinal (u)         3.51         7.00        11.65        1.377       19.666
   Lateral (v)             -4.10         0.00         4.54        1.270       18.137
   Vertical (w)            -2.56         0.00         2.46        0.838       11.968
   U component              3.51         7.00        11.65        1.377       19.666
   V component             -4.10         0.00         4.54        1.270       18.137
   W component             -2.56         0.00         2.46        0.838       11.968
   Horizontal (U&V)         4.06         7.12        11.70        1.328       18.641
   Total                    4.17         7.17        11.71        1.325       18.471

                       Min Reynolds     Mean Reynolds    Max Reynolds    Correlation
   Product             Stress (m/s)^2   Stress (m/s)^2   Stress (m/s)^2  Coefficient
   ----------------    --------------   --------------   --------------  -----------
   u'w'                     -4.713             0.167             8.572         0.145
   u'v'                    -12.234            -0.388             7.335        -0.222
   v'w'                     -5.897            -0.037             4.483        -0.035


   Friction Velocity (Ustar)  =      0.408 m/s
   Maximum Instantaneous TKE  =     13.621 (m/s)^2
   Maximum Instantaneous CTKE =      6.127 (m/s)^2


Grid Point Variance Summary:

   Y-coord -133.00 -121.92 -110.83  -99.75  -88.67  -77.58  -66.50  -55.42  -44.33  -33.25  -22.17  -11.08    0.00   11.08   22.17   33.25   44.33   55.42   66.50   77.58   88.67   99.75  110.83  121.92  133.00

   Height   Standard deviation at grid points for the u component:
   273.00    1.018   1.171   1.116   1.544   1.527   1.669   1.679   1.526   1.636   1.285   1.191   1.092   1.073   1.104   1.203   1.455   1.455   1.537   1.599   1.187   1.175   1.198   1.278   1.344   1.322
   261.92    0.900   1.135   1.329   1.418   1.573   1.616   1.564   1.635   1.613   1.337   1.298   1.096   1.138   1.082   1.402   1.596   1.701   1.512   1.620   1.248   1.096   1.384   1.591   1.433   1.500
   250.83    1.247   1.043   1.266   1.471   1.554   1.183   1.418   1.136   1.233   1.349   1.457   1.416   1.386   1.339   1.416   1.758   1.703   1.580   1.371   1.383   1.340   1.538   1.321   1.218   1.442
   239.75    1.477   1.141   1.109   1.360   1.270   1.125   1.217   1.430   1.250   1.336   1.441   1.237   1.452   1.859   1.559   1.448   1.735   1.958   1.608   1.723   1.546   1.354   1.167   1.222   1.386
   228.67    1.345   1.104   0.955   1.220   1.017   1.174   1.153   1.191   1.474   1.529   1.683   1.510   1.826   1.850   1.821   1.732   1.857   1.813   1.709   1.745   1.315   1.469   1.548   1.338   1.261
   217.58    1.218   1.349   1.276   1.156   1.273   1.240   1.331   1.213   1.306   1.245   1.437   1.541   2.021   2.008   2.117   1.658   1.745   1.562   1.538   1.330   1.295   1.370   1.231   1.281   1.407
   206.50    1.152   1.364   1.259   1.123   1.257   1.145   1.110   1.295   1.404   1.414   1.388   1.876   2.020   1.964   1.641   1.624   1.534   1.670   1.347   1.329   1.265   1.221   1.377   1.232   1.466
   195.42    1.235   1.263   1.219   1.188   1.416   1.321   0.961   1.152   1.159   1.508   1.723   1.975   1.846   1.758   1.815   1.669   1.355   1.539   1.650   1.357   1.379   1.047   1.087   1.156   1.339
   184.33    1.051   1.241   1.225   1.053   1.371   1.288   1.136   1.167   1.058   1.461   1.550   1.671   1.781   1.888   1.821   1.709   1.210   1.337   1.293   1.302   1.150   1.077   0.959   1.056   1.460
   173.25    1.321   1.369   1.184   1.134   1.255   1.252   1.323   1.532   1.454   1.382   1.521   1.288   1.569   1.592   1.417   1.539   1.313   1.242   1.103   1.314   0.955   0.994   1.124   1.155   1.247
   162.17    1.514   1.264   1.293   1.241   1.176   1.103   1.380   1.366   1.500   1.288   1.326   1.226   1.344   1.522   1.694   1.460   1.529   1.119   1.120   1.059   1.264   1.287   1.298   1.281   1.160
   151.08    1.533   1.331   1.421   1.217   1.261   1.395   1.387   1.546   1.252   1.067   1.075   1.071   1.563   1.524   1.792   1.436   1.487   1.175   1.025   1.449   1.452   1.187   1.310   1.157   1.072
   140.00    1.660   1.311   1.297   1.307   1.203   1.283   1.428   1.321   1.290   1.236   0.931   1.197   1.377   1.607   1.493   1.483   1.769   1.368   1.467   1.448   1.395   1.202   1.099   1.105   0.918
   128.92    1.487   1.461   1.603   1.393   1.083   1.302   1.455   1.378   1.422   1.318   1.170   1.318   1.316   1.432   1.065   1.287   1.435   1.718   1.544   1.687   1.694   1.420   1.478   1.327   1.143
   117.83    1.457   1.473   1.561   1.352   1.239   1.280   1.260   1.071   1.263   1.277   1.103   1.195   1.273   1.220   1.397   1.262   1.246   1.570   1.349   1.472   1.605   1.355   1.265   1.376   1.375
   106.75    1.594   1.478   1.278   1.378   1.570   1.436   1.194   1.060   1.139   1.290   1.169   0.915   1.157   1.121   1.392   1.547   1.560   1.892   1.491   1.663   1.500   1.087   1.310   1.504   1.629
    95.67    1.342   1.289   1.463   1.340   1.526   1.382   1.163   1.193   1.186   1.370   1.206   1.076   1.107   1.239   1.220   1.477   1.698   1.716   1.779   1.414   1.333   1.150   1.244   1.569   1.748
    84.58    1.588   1.402   1.051   1.249   1.462   1.341   1.237   1.183   1.063   1.090   1.136   0.976   0.969   1.280   1.807   1.590   1.512   1.630   1.557   1.214   1.147   1.234   1.193   1.281   1.673
    73.50    1.538   1.223   1.229   1.147   1.143   1.394   1.383   1.297   1.150   1.201   1.196   1.108   1.153   1.333   1.580   1.559   1.715   1.594   1.617   1.479   1.368   1.174   1.413   1.327   1.578
    62.42    1.652   1.477   1.172   1.318   1.363   1.370   1.373   1.030   1.216   1.274   1.416   1.339   1.359   1.713   1.634   1.494   1.362   1.425   1.217   1.237   1.263   1.200   1.177   1.340   1.537
    51.33    1.642   1.397   1.231   1.383   1.382   1.231   1.293   1.101   1.018   1.217   1.242   1.335   1.556   1.694   1.725   1.458   1.427   1.221   1.265   1.292   1.305   1.336   1.507   1.481   1.409
    40.25    1.708   1.384   1.292   1.088   1.153   1.086   1.194   1.101   1.333   1.361   1.374   1.397   1.607   1.484   1.699   1.339   1.325   1.215   1.189   1.244   1.446   1.227   1.504   1.625   1.653
    29.17    1.427   1.467   1.498   1.231   1.237   1.176   1.241   1.274   1.062   1.424   1.722   1.293   1.444   1.757   1.722   1.576   1.656   1.605   1.264   1.350   1.309   1.362   1.220   1.300   1.164
    18.08    1.452   1.738   1.487   1.165   1.045   1.099   1.075   1.174   1.047   1.291   1.562   1.595   1.546   1.656   1.723   1.629   1.671   1.459   1.634   1.417   1.330   1.306   1.409   1.461   1.364
     7.00    1.397   1.377   1.609   1.316   1.115   0.989   1.003   1.257   1.281   1.382   1.401   1.558   1.550   1.358   1.503   1.640   1.560   1.668   1.426   1.393   1.444   1.053   1.271   1.204   1.495

   Height   Standard deviation at grid points for the v component:
   273.00    1.270   1.270   1.270   1.270   1.270   1.270   1.270   1.270   1.270   1.270   1.270   1.270   1.270   1.270   1.270   1.270   1.270   1.270   1.270   1.270   1.270   1.270   1.270   1.270   1.270
   261.92    1.270   1.270   1.270   1.270   1.270   1.270   1.270   1.270   1.270   1.270   1.270   1.270   1.270   1.270   1.270   1.270   1.270   1.270   1.270   1.270   1.270   1.270   1.270   1.270   1.270
   250.83    1.270   1.270   1.270   1.270   1.270   1.270   1.270   1.270   1.270   1.270   1.270   1.270   1.270   1.270   1.270   1.270   1.270   1.270   1.270   1.270   1.270   1.270   1.270   1.270   1.270
   239.75    1.270   1.270   1.270   1.270   1.270   1.270   1.270   1.270   1.270   1.270   1.270   1.270   1.270   1.270   1.270   1.270   1.270   1.270   1.270   1.270   1.270   1.270   1.270   1.270   1.270
   228.67    1.270   1.270   1.270   1.270   1.270   1.270   1.270   1.270   1.270   1.270   1.270   1.270   1.270   1.270   1.270   1.270   1.270   1.270   1.270   1.270   1.270   1.270   1.270   1.270   1.270
   217.58    1.270   1.270   1.270   1.270   1.270   1.270   1.270   1.270   1.270   1.270   1.270   1.270   1.270   1.270   1.270   1.270   1.270   1.270   1.270   1.270   1.270   1.270   1.270   1.270   1.270
   206.50    1.270   1.270   1.270   1.270   1.270   1.270   1.270   1.270   1.270   1.270   1.270   1.270   1.270   1.270   1.270   1.270   1.270   1.270   1.270   1.270   1.270   1.270   1.270   1.270   1.270
   195.42    1.270   1.270   1.270   1.270   1.270   1.270   1.270   1.270   1.270   1.270   1.270   1.270   1.270   1.270   1.270   1.270   1.270   1.270   1.270   1.270   1.270   1.270   1.270   1.270   1.270
   184.33    1.270   1.270   1.270   1.270   1.270   1.270   1.270   1.270   1.270   1.270   1.270   1.270   1.270   1.270   1.270   1.270   1.270   1.270   1.270   1.270   1.270   1.270   1.270   1.270   1.270
   173.25    1.270   1.270   1.270   1.270   1.270   1.270   1.270   1.270   1.270   1.270   1.270   1.270   1.270   1.270   1.270   1.270   1.270   1.270   1.270   1.270   1.270   1.270   1.270   1.270   1.270
   162.17    1.270   1.270   1.270   1.270   1.270   1.270   1.270   1.270   1.270   1.270   1.270   1.270   1.270   1.270   1.270   1.270   1.270   1.270   1.270   1.270   1.270   1.270   1.270   1.270   1.270
   151.08    1.270   1.270   1.270   1.270   1.270   1.270   1.270   1.270   1.270   1.270   1.270   1.270   1.270   1.270   1.270   1.270   1.270   1.270   1.270   1.270   1.270   1.270   1.270   1.270   1.270
   140.00    1.270   1.270   1.270   1.270   1.270   1.270   1.270   1.270   1.270   1.270   1.270   1.270   1.270   1.270   1.270   1.270   1.270   1.270   1.270   1.270   1.270   1.270   1.270   1.270   1.270
   128.92    1.270   1.270   1.270   1.270   1.270   1.270   1.270   1.270   1.270   1.270   1.270   1.270   1.270   1.270   1.270   1.270   1.270   1.270   1.270   1.270   1.270   1.270   1.270   1.270   1.270
   117.83    1.270   1.270   1.270   1.270   1.270   1.270   1.270   1.270   1.270   1.270   1.270   1.270   1.270   1.270   1.270   1.270   1.270   1.270   1.270   1.270   1.270   1.270   1.270   1.270   1.270
   106.75    1.270   1.270   1.270   1.270   1.270   1.270   1.270   1.270   1.270   1.270   1.270   1.270   1.270   1.270   1.270   1.270   1.270   1.270   1.270   1.270   1.270   1.270   1.270   1.270   1.270
    95.67    1.270   1.270   1.270   1.270   1.270   1.270   1.270   1.270   1.270   1.270   1.270   1.270   1.270   1.270   1.270   1.270   1.270   1.270   1.270   1.270   1.270   1.270   1.270   1.270   1.270
    84.58    1.270   1.270   1.270   1.270   1.270   1.270   1.270   1.270   1.270   1.270   1.270   1.270   1.270   1.270   1.270   1.270   1.270   1.270   1.270   1.270   1.270   1.270   1.270   1.270   1.270
    73.50    1.270   1.270   1.270   1.270   1.270   1.270   1.270   1.270   1.270   1.270   1.270   1.270   1.270   1.270   1.270   1.270   1.270   1.270   1.270   1.270   1.270   1.270   1.270   1.270   1.270
    62.42    1.270   1.270   1.270   1.270   1.270   1.270   1.270   1.270   1.270   1.270   1.270   1.270   1.270   1.270   1.270   1.270   1.270   1.270   1.270   1.270   1.270   1.270   1.270   1.270   1.270
    51.33    1.270   1.270   1.270   1.270   1.270   1.270   1.270   1.270   1.270   1.270   1.270   1.270   1.270   1.270   1.270   1.270   1.270   1.270   1.270   1.270   1.270   1.270   1.270   1.270   1.270
    40.25    1.270   1.270   1.270   1.270   1.270   1.270   1.270   1.270   1.270   1.270   1.270   1.270   1.270   1.270   1.270   1.270   1.270   1.270   1.270   1.270   1.270   1.270   1.270   1.270   1.270
    29.17    1.270   1.270   1.270   1.270   1.270   1.270   1.270   1.270   1.270   1.270   1.270   1.270   1.270   1.270   1.270   1.270   1.270   1.270   1.270   1.270   1.270   1.270   1.270   1.270   1.270
    18.08    1.270   1.270   1.270   1.270   1.270   1.270   1.270   1.270   1.270   1.270   1.270   1.270   1.270   1.270   1.270   1.270   1.270   1.270   1.270   1.270   1.270   1.270   1.270   1.270   1.270
     7.00    1.270   1.270   1.270   1.270   1.270   1.270   1.270   1.270   1.270   1.270   1.270   1.270   1.270   1.270   1.270   1.270   1.270   1.270   1.270   1.270   1.270   1.270   1.270   1.270   1.270

   Height   Standard deviation at grid points for the w component:
   273.00    0.838   0.838   0.838   0.838   0.838   0.838   0.838   0.838   0.838   0.838   0.838   0.838   0.838   0.838   0.838   0.838   0.838   0.838   0.838   0.838   0.838   0.838   0.838   0.838   0.838
   261.92    0.838   0.838   0.838   0.838   0.838   0.838   0.838   0.838   0.838   0.838   0.838   0.838   0.838   0.838   0.838   0.838   0.838   0.838   0.838   0.838   0.838   0.838   0.838   0.838   0.838
   250.83    0.838   0.838   0.838   0.838   0.838   0.838   0.838   0.838   0.838   0.838   0.838   0.838   0.838   0.838   0.838   0.838   0.838   0.838   0.838   0.838   0.838   0.838   0.838   0.838   0.838
   239.75    0.838   0.838   0.838   0.838   0.838   0.838   0.838   0.838   0.838   0.838   0.838   0.838   0.838   0.838   0.838   0.838   0.838   0.838   0.838   0.838   0.838   0.838   0.838   0.838   0.838
   228.67    0.838   0.838   0.838   0.838   0.838   0.838   0.838   0.838   0.838   0.838   0.838   0.838   0.838   0.838   0.838   0.838   0.838   0.838   0.838   0.838   0.838   0.838   0.838   0.838   0.838
   217.58    0.838   0.838   0.838   0.838   0.838   0.838   0.838   0.838   0.838   0.838   0.838   0.838   0.838   0.838   0.838   0.838   0.838   0.838   0.838   0.838   0.838   0.838   0.838   0.838   0.838
   206.50    0.838   0.838   0.838   0.838   0.838   0.838   0.838   0.838   0.838   0.838   0.838   0.838   0.838   0.838   0.838   0.838   0.838   0.838   0.838   0.838   0.838   0.838   0.838   0.838   0.838
   195.42    0.838   0.838   0.838   0.838   0.838   0.838   0.838   0.838   0.838   0.838   0.838   0.838   0.838   0.838   0.838   0.838   0.838   0.838   0.838   0.838   0.838   0.838   0.838   0.838   0.838
   184.33    0.838   0.838   0.838   0.838   0.838   0.838   0.838   0.838   0.838   0.838   0.838   0.838   0.838   0.838   0.838   0.838   0.838   0.838   0.838   0.838   0.838   0.838   0.838   0.838   0.838
   173.25    0.838   0.838   0.838   0.838   0.838   0.838   0.838   0.838   0.838   0.838   0.838   0.838   0.838   0.838   0.838   0.838   0.838   0.838   0.838   0.838   0.838   0.838   0.838   0.838   0.838
   162.17    0.838   0.838   0.838   0.838   0.838   0.838   0.838   0.838   0.838   0.838   0.838   0.838   0.838   0.838   0.838   0.838   0.838   0.838   0.838   0.838   0.838   0.838   0.838   0.838   0.838
   151.08    0.838   0.838   0.838   0.838   0.838   0.838   0.838   0.838   0.838   0.838   0.838   0.838   0.838   0.838   0.838   0.838   0.838   0.838   0.838   0.838   0.838   0.838   0.838   0.838   0.838
   140.00    0.838   0.838   0.838   0.838   0.838   0.838   0.838   0.838   0.838   0.838   0.838   0.838   0.838   0.838   0.838   0.838   0.838   0.838   0.838   0.838   0.838   0.838   0.838   0.838   0.838
   128.92    0.838   0.838   0.838   0.838   0.838   0.838   0.838   0.838   0.838   0.838   0.838   0.838   0.838   0.838   0.838   0.838   0.838   0.838   0.838   0.838   0.838   0.838   0.838   0.838   0.838
   117.83    0.838   0.838   0.838   0.838   0.838   0.838   0.838   0.838   0.838   0.838   0.838   0.838   0.838   0.838   0.838   0.838   0.838   0.838   0.838   0.838   0.838   0.838   0.838   0.838   0.838
   106.75    0.838   0.838   0.838   0.838   0.838   0.838   0.838   0.838   0.838   0.838   0.838   0.838   0.838   0.838   0.838   0.838   0.838   0.838   0.838   0.838   0.838   0.838   0.838   0.838   0.838
    95.67    0.838   0.838   0.838   0.838   0.838   0.838   0.838   0.838   0.838   0.838   0.838   0.838   0.838   0.838   0.838   0.838   0.838   0.838   0.838   0.838   0.838   0.838   0.838   0.838   0.838
    84.58    0.838   0.838   0.838   0.838   0.838   0.838   0.838   0.838   0.838   0.838   0.838   0.838   0.838   0.838   0.838   0.838   0.838   0.838   0.838   0.838   0.838   0.838   0.838   0.838   0.838
    73.50    0.838   0.838   0.838   0.838   0.838   0.838   0.838   0.838   0.838   0.838   0.838   0.838   0.838   0.838   0.838   0.838   0.838   0.838   0.838   0.838   0.838   0.838   0.838   0.838   0.838
    62.42    0.838   0.838   0.838   0.838   0.838   0.838   0.838   0.838   0.838   0.838   0.838   0.838   0.838   0.838   0.838   0.838   0.838   0.838   0.838   0.838   0.838   0.838   0.838   0.838   0.838
    51.33    0.838   0.838   0.838   0.838   0.838   0.838   0.838   0.838   0.838   0.838   0.838   0.838   0.838   0.838   0.838   0.838   0.838   0.838   0.838   0.838   0.838   0.838   0.838   0.838   0.838
    40.25    0.838   0.838   0.838   0.838   0.838   0.838   0.838   0.838   0.838   0.838   0.838   0.838   0.838   0.838   0.838   0.838   0.838   0.838   0.838   0.838   0.838   0.838   0.838   0.838   0.838
    29.17    0.838   0.838   0.838   0.838   0.838   0.838   0.838   0.838   0.838   0.838   0.838   0.838   0.838   0.838   0.838   0.838   0.838   0.838   0.838   0.838   0.838   0.838   0.838   0.838   0.838
    18.08    0.838   0.838   0.838   0.838   0.838   0.838   0.838   0.838   0.838   0.838   0.838   0.838   0.838   0.838   0.838   0.838   0.838   0.838   0.838   0.838   0.838   0.838   0.838   0.838   0.838
     7.00    0.838   0.838   0.838   0.838   0.838   0.838   0.838   0.838   0.838   0.838   0.838   0.838   0.838   0.838   0.838   0.838   0.838   0.838   0.838   0.838   0.838   0.838   0.838   0.838   0.838

   Mean standard deviation across all grid points:
      u component:    1.371 m/s
      v component:    1.270 m/s
      w component:    0.838 m/s


U-component (X) statistics from the interpolated hub point:

   Mean =   7.0000 m/s
   TI   =  19.6665 %


Processing complete.  23.515 CPU seconds used.
